# generated using pymatgen
data_H42C55(N3O2)2
_symmetry_space_group_name_H-M   'P 1'
_cell_length_a   49.25260000
_cell_length_b   49.25260000
_cell_length_c   49.25260000
_cell_angle_alpha   90.00000000
_cell_angle_beta   90.00000000
_cell_angle_gamma   90.00000000
_symmetry_Int_Tables_number   1
_chemical_formula_structural   H42C55(N3O2)2
_chemical_formula_sum   'H672 C880 N96 O64'
_cell_volume   119477.87351131
_cell_formula_units_Z   16
loop_
 _symmetry_equiv_pos_site_id
 _symmetry_equiv_pos_as_xyz
  1  'x, y, z'
loop_
 _atom_site_type_symbol
 _atom_site_label
 _atom_site_symmetry_multiplicity
 _atom_site_fract_x
 _atom_site_fract_y
 _atom_site_fract_z
 _atom_site_occupancy
  H  25  1  0.06725600  0.91565800  0.00185500  1
  H  26  1  0.03656900  0.92143400  0.96456100  1
  H  27  1  0.96219100  0.97045900  0.91840900  1
  H  28  1  0.93158600  0.00807700  0.91482700  1
  H  29  1  0.96189900  0.04032700  0.98764400  1
  H  30  1  0.03531000  0.98506300  0.03954800  1
  H  31  1  0.96190100  0.96111900  0.01380600  1
  H  32  1  0.93159200  0.99336700  0.08662700  1
  H  33  1  0.96219800  0.03098600  0.08304400  1
  H  34  1  0.03530800  0.01638400  0.96189900  1
  H  35  1  0.03657200  0.08001100  0.03688800  1
  H  36  1  0.06725400  0.08579000  0.99959300  1
  H  39  1  0.01145700  0.96008400  0.93770300  1
  H  40  1  0.98681800  0.94076700  0.95548300  1
  H  42  1  0.98682200  0.06067900  0.04596800  1
  H  43  1  0.01146200  0.04136100  0.06374600  1
  H  45  1  0.91496100  0.05243400  0.96457900  1
  H  47  1  0.08127000  0.96240100  0.05154200  1
  H  49  1  0.91496500  0.94900800  0.03687700  1
  H  51  1  0.08127100  0.03905200  0.94990800  1
  H  76  1  0.43419100  0.08579000  0.50186600  1
  H  77  1  0.46487100  0.08001400  0.46457100  1
  H  78  1  0.53924700  0.03099400  0.41841100  1
  H  79  1  0.56985700  0.99338000  0.41482700  1
  H  80  1  0.53955000  0.96112500  0.48764600  1
  H  81  1  0.46613800  0.01638000  0.53955400  1
  H  82  1  0.53954300  0.04032600  0.51380500  1
  H  83  1  0.56985700  0.00807800  0.58662500  1
  H  84  1  0.53925100  0.97046100  0.58304400  1
  H  85  1  0.46613600  0.98505900  0.46190300  1
  H  86  1  0.46487700  0.92143200  0.53689200  1
  H  87  1  0.43419300  0.91565200  0.49959600  1
  H  90  1  0.48998300  0.04136600  0.43770900  1
  H  91  1  0.51462100  0.06068200  0.45548900  1
  H  93  1  0.51462500  0.94076700  0.54597200  1
  H  94  1  0.48998500  0.96008600  0.56374700  1
  H  96  1  0.58648900  0.94902300  0.46457500  1
  H  98  1  0.42017500  0.03904700  0.55155300  1
  H  100  1  0.58648100  0.05243400  0.53686900  1
  H  102  1  0.42017500  0.96239400  0.44991200  1
  H  127  1  0.33657300  0.81579700  0.25531500  1
  H  128  1  0.33166000  0.78552000  0.21758900  1
  H  129  1  0.28400100  0.71129700  0.16981600  1
  H  130  1  0.24596300  0.68148900  0.16444500  1
  H  131  1  0.21106300  0.71237100  0.23578300  1
  H  132  1  0.26532200  0.78470400  0.29020600  1
  H  133  1  0.29038500  0.71237300  0.26566900  1
  H  134  1  0.25548900  0.68149300  0.33701000  1
  H  135  1  0.21745100  0.71130100  0.33164200  1
  H  136  1  0.23611400  0.78469600  0.21124200  1
  H  137  1  0.16978800  0.78552000  0.28386900  1
  H  138  1  0.16486600  0.81579100  0.24613900  1
  H  141  1  0.29391600  0.76055300  0.18924700  1
  H  142  1  0.31234900  0.73595100  0.20799100  1
  H  144  1  0.18909800  0.73595100  0.29347100  1
  H  145  1  0.20753400  0.76055700  0.31220700  1
  H  147  1  0.19688000  0.66762400  0.21185100  1
  H  149  1  0.28886600  0.82954900  0.30455500  1
  H  151  1  0.30457300  0.66762800  0.28960100  1
  H  153  1  0.21257200  0.82954500  0.19690300  1
  H  178  1  0.16486700  0.18565200  0.75531100  1
  H  179  1  0.16979100  0.21592200  0.71757900  1
  H  180  1  0.21745500  0.29014300  0.66981100  1
  H  181  1  0.25549500  0.31995500  0.66444500  1
  H  182  1  0.29038300  0.28907700  0.73578900  1
  H  183  1  0.23611400  0.21674600  0.79020900  1
  H  184  1  0.21105900  0.28907300  0.76566200  1
  H  185  1  0.24594000  0.31995300  0.83700800  1
  H  186  1  0.28398300  0.29014300  0.83164600  1
  H  187  1  0.26533400  0.21674400  0.71124600  1
  H  188  1  0.33165600  0.21592800  0.78388000  1
  H  189  1  0.33658100  0.18565700  0.74614800  1
  H  192  1  0.20753600  0.24088700  0.68924300  1
  H  193  1  0.18910200  0.26549300  0.70798100  1
  H  195  1  0.31233900  0.26549500  0.79347700  1
  H  196  1  0.29390500  0.24088700  0.81221300  1
  H  198  1  0.30456700  0.33382000  0.71185700  1
  H  200  1  0.21256400  0.17189800  0.80454900  1
  H  202  1  0.19687000  0.33381600  0.78958900  1
  H  204  1  0.28888800  0.17189700  0.69691000  1
  H  229  1  0.66329700  0.18686800  0.74442400  1
  H  230  1  0.66921000  0.21566200  0.78316100  1
  H  231  1  0.71823700  0.28797100  0.83250500  1
  H  232  1  0.75555900  0.31881000  0.83715800  1
  H  233  1  0.78958100  0.28933300  0.76481700  1
  H  234  1  0.73580500  0.21637500  0.71080800  1
  H  235  1  0.71187600  0.28934100  0.73664000  1
  H  236  1  0.74590800  0.31882200  0.66430200  1
  H  237  1  0.78322600  0.28797700  0.66895600  1
  H  238  1  0.76564100  0.21637000  0.79064500  1
  H  239  1  0.83223500  0.21565200  0.71829100  1
  H  240  1  0.83814500  0.18685600  0.75702900  1
  H  243  1  0.70829800  0.23878600  0.81220900  1
  H  244  1  0.68950500  0.26389300  0.79452900  1
  H  246  1  0.81195200  0.26388700  0.70693000  1
  H  247  1  0.79315300  0.23878800  0.68924300  1
  H  249  1  0.80032800  0.33643700  0.78830800  1
  H  251  1  0.70994700  0.17056200  0.69730000  1
  H  253  1  0.70113700  0.33645400  0.71315100  1
  H  255  1  0.79149400  0.17055600  0.80415700  1
  H  280  1  0.83815900  0.81458100  0.24441800  1
  H  281  1  0.83224700  0.78578600  0.28315300  1
  H  282  1  0.78322400  0.71347300  0.33249200  1
  H  283  1  0.74590800  0.68262600  0.33714000  1
  H  284  1  0.71187600  0.71211700  0.26480900  1
  H  285  1  0.76564500  0.78508600  0.21080700  1
  H  286  1  0.78958100  0.71212300  0.23663700  1
  H  287  1  0.75556100  0.68264700  0.16429300  1
  H  288  1  0.71824100  0.71349000  0.16894400  1
  H  289  1  0.73580100  0.78508200  0.29064500  1
  H  290  1  0.66921200  0.78579900  0.21828500  1
  H  291  1  0.66329500  0.81458500  0.25702600  1
  H  294  1  0.79316100  0.76266100  0.31220700  1
  H  295  1  0.81195200  0.73755900  0.29451500  1
  H  297  1  0.68950700  0.73757200  0.20691300  1
  H  298  1  0.70830800  0.76267700  0.18923800  1
  H  300  1  0.70114100  0.66500100  0.28829200  1
  H  302  1  0.79151200  0.83089100  0.19728600  1
  H  304  1  0.80032400  0.66501300  0.21315000  1
  H  306  1  0.70993700  0.83089300  0.30415100  1
  H  331  1  0.56534100  0.41314800  0.50990200  1
  H  332  1  0.53629900  0.41775700  0.47118600  1
  H  333  1  0.46496700  0.46595100  0.41977900  1
  H  334  1  0.43610700  0.50442000  0.41257100  1
  H  335  1  0.46465800  0.53994300  0.48455900  1
  H  336  1  0.53656700  0.48710400  0.54092400  1
  H  337  1  0.46465400  0.46151100  0.51689100  1
  H  338  1  0.43610700  0.49703600  0.58887900  1
  H  339  1  0.46497100  0.53550100  0.58167100  1
  H  340  1  0.53657300  0.51434300  0.46052800  1
  H  341  1  0.53631100  0.58368500  0.53027100  1
  H  342  1  0.56535700  0.58829000  0.49155400  1
  H  345  1  0.51321200  0.45556400  0.44083400  1
  H  346  1  0.48795200  0.43803400  0.45956600  1
  H  348  1  0.48795800  0.56341600  0.54188400  1
  H  349  1  0.51321600  0.54588200  0.56061800  1
  H  351  1  0.41924100  0.55278900  0.45759000  1
  H  353  1  0.58195900  0.46139900  0.55557100  1
  H  355  1  0.41923700  0.44866500  0.54386000  1
  H  357  1  0.58197200  0.54004100  0.44588700  1
  H  382  1  0.93609100  0.58828800  0.00988200  1
  H  383  1  0.96514000  0.58367900  0.97117000  1
  H  384  1  0.03648700  0.53549100  0.91977900  1
  H  385  1  0.06535000  0.49702800  0.91257600  1
  H  386  1  0.03679200  0.46150500  0.98456200  1
  H  387  1  0.96487800  0.51434700  0.04092100  1
  H  388  1  0.03679000  0.53994300  0.01689600  1
  H  389  1  0.06535100  0.50441400  0.08887600  1
  H  390  1  0.03649100  0.46594700  0.08166800  1
  H  391  1  0.96488800  0.48710100  0.96052500  1
  H  392  1  0.96515800  0.41775500  0.03026300  1
  H  393  1  0.93611600  0.41314400  0.99154800  1
  H  396  1  0.98824300  0.54587200  0.94082400  1
  H  397  1  0.01349100  0.56341400  0.95956200  1
  H  399  1  0.01350000  0.43803200  0.04188000  1
  H  400  1  0.98824300  0.45556200  0.06062000  1
  H  402  1  0.08219900  0.44863000  0.95759700  1
  H  404  1  0.91948100  0.54004700  0.05556500  1
  H  406  1  0.08220500  0.55280000  0.04386200  1
  H  408  1  0.91949900  0.46139300  0.94586700  1
  H  415  1  0.80800500  0.82012400  0.12437500  1
  H  422  1  0.91876000  0.84833300  0.11227300  1
  H  423  1  0.94794000  0.87768000  0.08687100  1
  H  424  1  0.88310900  0.93281000  0.07639300  1
  H  425  1  0.86414600  0.82916900  0.18817100  1
  H  426  1  0.85412200  0.90363000  0.10179500  1
  H  427  1  0.89164500  0.85766900  0.16021900  1
  H  432  1  0.94685200  0.91515200  0.04716800  1
  H  433  1  0.95435600  0.93074100  0.07863300  1
  H  435  1  0.82978000  0.78665500  0.18193100  1
  H  436  1  0.79916200  0.79589100  0.16585800  1
  H  443  1  0.69345800  0.18131200  0.62437100  1
  H  450  1  0.58270100  0.15310100  0.61228100  1
  H  451  1  0.55351600  0.12375800  0.58687700  1
  H  452  1  0.61834700  0.06863300  0.57637600  1
  H  453  1  0.63731700  0.17226800  0.68816700  1
  H  454  1  0.64733900  0.09780900  0.60178000  1
  H  455  1  0.60981600  0.14376800  0.66021700  1
  H  460  1  0.55459400  0.08629100  0.54716500  1
  H  461  1  0.54710200  0.07070700  0.57863600  1
  H  463  1  0.67167500  0.21478300  0.68191600  1
  H  464  1  0.70229600  0.20554700  0.66585400  1
  H  471  1  0.44267500  0.57421800  0.37776700  1
  H  478  1  0.39531900  0.67642800  0.37689000  1
  H  479  1  0.36549800  0.70441400  0.35061900  1
  H  480  1  0.32249900  0.63463300  0.32534700  1
  H  481  1  0.40961500  0.61034800  0.44784500  1
  H  482  1  0.35245700  0.60677000  0.35125900  1
  H  483  1  0.38058700  0.63778800  0.42015100  1
  H  488  1  0.33402700  0.70216200  0.30497900  1
  H  489  1  0.31485700  0.70575400  0.33512200  1
  H  491  1  0.45431700  0.58434100  0.45009400  1
  H  492  1  0.46497900  0.56693900  0.42084100  1
  H  499  1  0.05874900  0.42723100  0.87773100  1
  H  506  1  0.10611200  0.32503300  0.87687200  1
  H  507  1  0.13593200  0.29704200  0.85060500  1
  H  508  1  0.17893600  0.36681700  0.82532800  1
  H  509  1  0.09182600  0.39113300  0.94781900  1
  H  510  1  0.14897700  0.39468600  0.85123500  1
  H  511  1  0.12085400  0.36368700  0.92013100  1
  H  516  1  0.16740800  0.29928400  0.80496300  1
  H  517  1  0.18656800  0.29570000  0.83511200  1
  H  519  1  0.04709100  0.41712100  0.95004400  1
  H  520  1  0.03647500  0.43456400  0.92079700  1
  H  527  1  0.69346800  0.82015400  0.37707700  1
  H  534  1  0.58270700  0.84833500  0.38919400  1
  H  535  1  0.55352400  0.87768000  0.41459800  1
  H  536  1  0.61834100  0.93283100  0.42505000  1
  H  537  1  0.63730700  0.82916300  0.31329100  1
  H  538  1  0.64733300  0.90365200  0.39964800  1
  H  539  1  0.60980800  0.85766500  0.34124100  1
  H  544  1  0.55460900  0.91515800  0.45429100  1
  H  545  1  0.54709800  0.93074100  0.42282500  1
  H  547  1  0.67168500  0.78665700  0.31954300  1
  H  548  1  0.70230400  0.79591000  0.33559900  1
  H  555  1  0.80799400  0.18132200  0.87707700  1
  H  562  1  0.91874800  0.15310100  0.88916600  1
  H  563  1  0.94793200  0.12375800  0.91457200  1
  H  564  1  0.88309700  0.06863800  0.92507700  1
  H  565  1  0.86413000  0.17225900  0.81327500  1
  H  566  1  0.85410600  0.09781500  0.89967100  1
  H  567  1  0.89162900  0.14376100  0.84122900  1
  H  572  1  0.94685000  0.08629100  0.95428700  1
  H  573  1  0.95434200  0.07070800  0.92281700  1
  H  575  1  0.82977600  0.21477700  0.81952100  1
  H  576  1  0.79915600  0.20554900  0.83559100  1
  H  583  1  0.05876400  0.57421800  0.12370300  1
  H  590  1  0.10612300  0.67642200  0.12457200  1
  H  591  1  0.13594600  0.70440800  0.15084000  1
  H  592  1  0.17895000  0.63462900  0.17610800  1
  H  593  1  0.09183100  0.61033000  0.05362000  1
  H  594  1  0.14899000  0.60676400  0.15020000  1
  H  595  1  0.12086000  0.63777400  0.08131100  1
  H  600  1  0.16742100  0.70215800  0.19647800  1
  H  601  1  0.18658700  0.70575000  0.16633300  1
  H  603  1  0.04711300  0.58433300  0.05138300  1
  H  604  1  0.03647300  0.56691300  0.08063400  1
  H  611  1  0.44267500  0.42724100  0.62368900  1
  H  618  1  0.39532400  0.32503500  0.62457200  1
  H  619  1  0.36550800  0.29704600  0.65084700  1
  H  620  1  0.32249900  0.36682100  0.67611500  1
  H  621  1  0.40960700  0.39111300  0.55361400  1
  H  622  1  0.35245300  0.39468800  0.65020200  1
  H  623  1  0.38057900  0.36367400  0.58131000  1
  H  628  1  0.33403300  0.29929200  0.69649000  1
  H  629  1  0.31487700  0.29569800  0.66634100  1
  H  631  1  0.45431300  0.41711500  0.55136200  1
  H  632  1  0.46497300  0.43452100  0.58061300  1
  H  639  1  0.18210400  0.18544100  0.87605600  1
  H  646  1  0.07899000  0.13418000  0.86612700  1
  H  647  1  0.04914000  0.10588800  0.89165100  1
  H  648  1  0.11633300  0.07275900  0.93334200  1
  H  649  1  0.14361400  0.15828800  0.80478600  1
  H  650  1  0.14621100  0.10002200  0.90693900  1
  H  651  1  0.11711900  0.12717700  0.83063300  1
  H  656  1  0.04468100  0.08563100  0.93930700  1
  H  657  1  0.04918500  0.05640200  0.91897900  1
  H  659  1  0.16602800  0.20943500  0.81431300  1
  H  660  1  0.19578000  0.20590200  0.83392600  1
  H  667  1  0.31935400  0.81601000  0.37605300  1
  H  674  1  0.42244500  0.86728700  0.36611700  1
  H  675  1  0.45229900  0.89556700  0.39164900  1
  H  676  1  0.38510900  0.92869900  0.43334400  1
  H  677  1  0.35781500  0.84317800  0.30477600  1
  H  678  1  0.35522800  0.90144500  0.40693300  1
  H  679  1  0.38430500  0.87430000  0.33061400  1
  H  684  1  0.45674200  0.91579200  0.43931500  1
  H  685  1  0.45228100  0.94503700  0.41900100  1
  H  687  1  0.33542800  0.79203800  0.31430200  1
  H  688  1  0.30567500  0.79554600  0.33392000  1
  H  695  1  0.57189900  0.44451700  0.62879000  1
  H  702  1  0.59939000  0.33324800  0.63974100  1
  H  703  1  0.62909600  0.30372400  0.66432500  1
  H  704  1  0.68465300  0.36826500  0.67436300  1
  H  705  1  0.57937500  0.38862700  0.56456500  1
  H  706  1  0.65512500  0.39758100  0.64977500  1
  H  707  1  0.60794800  0.36064700  0.59193700  1
  H  712  1  0.66719800  0.30433300  0.70335000  1
  H  713  1  0.68235600  0.29708700  0.67160400  1
  H  715  1  0.53745800  0.42367700  0.57154000  1
  H  716  1  0.54750600  0.45409000  0.58751000  1
  H  723  1  0.92956400  0.55694800  0.12878000  1
  H  730  1  0.90205900  0.66821300  0.13971600  1
  H  731  1  0.87235700  0.69773800  0.16430300  1
  H  732  1  0.81681400  0.63319100  0.17438100  1
  H  733  1  0.92205100  0.61281900  0.06454400  1
  H  734  1  0.84633800  0.60387100  0.14979000  1
  H  735  1  0.89348600  0.64080300  0.09192100  1
  H  740  1  0.83426500  0.69713300  0.20334600  1
  H  741  1  0.81910900  0.70436900  0.17159600  1
  H  743  1  0.96397600  0.57778300  0.07151400  1
  H  744  1  0.95394200  0.54737000  0.08749200  1
  H  751  1  0.31934000  0.18543700  0.62539700  1
  H  758  1  0.42245900  0.13418700  0.63531900  1
  H  759  1  0.45230900  0.10589400  0.60979400  1
  H  760  1  0.38511300  0.07275400  0.56811700  1
  H  761  1  0.35783900  0.15829500  0.69666600  1
  H  762  1  0.35523600  0.10001800  0.59451900  1
  H  763  1  0.38433500  0.12718400  0.67082000  1
  H  768  1  0.45676200  0.08563200  0.56213900  1
  H  769  1  0.45226700  0.05640600  0.58247300  1
  H  771  1  0.33542000  0.20943900  0.68713600  1
  H  772  1  0.30566500  0.20590000  0.66752700  1
  H  779  1  0.18209900  0.81602000  0.12539300  1
  H  786  1  0.07900000  0.86728100  0.13532100  1
  H  787  1  0.04914700  0.89556100  0.10978900  1
  H  788  1  0.11633900  0.92870900  0.06811200  1
  H  789  1  0.14362200  0.84317000  0.19666900  1
  H  790  1  0.14622000  0.90145800  0.09452200  1
  H  791  1  0.11713300  0.87429300  0.17083200  1
  H  796  1  0.04470900  0.91579400  0.06212500  1
  H  797  1  0.04916100  0.94503700  0.08244500  1
  H  799  1  0.16601600  0.79203200  0.18713500  1
  H  800  1  0.19577200  0.79555000  0.16752400  1
  H  807  1  0.92958000  0.44449300  0.87266300  1
  H  814  1  0.90207700  0.33322900  0.86172000  1
  H  815  1  0.87236900  0.30370600  0.83713600  1
  H  816  1  0.81681800  0.36825300  0.82709000  1
  H  817  1  0.92208400  0.38861700  0.93689500  1
  H  818  1  0.84634800  0.39756900  0.85167500  1
  H  819  1  0.89351300  0.36063500  0.90952200  1
  H  824  1  0.83426700  0.30431700  0.79811100  1
  H  825  1  0.81911100  0.29707300  0.82985700  1
  H  827  1  0.96400300  0.42366100  0.92993100  1
  H  828  1  0.95396600  0.45407000  0.91394600  1
  H  835  1  0.57190700  0.55692500  0.37266300  1
  H  842  1  0.59939800  0.66819300  0.36171300  1
  H  843  1  0.62909800  0.69771800  0.33712800  1
  H  844  1  0.68465100  0.63317900  0.32706500  1
  H  845  1  0.57939700  0.61281100  0.43688900  1
  H  846  1  0.65512900  0.60385900  0.35165700  1
  H  847  1  0.60796400  0.64079100  0.40951200  1
  H  852  1  0.66719400  0.69711500  0.29809000  1
  H  853  1  0.68234600  0.70435700  0.32984100  1
  H  855  1  0.53747700  0.57776700  0.42991500  1
  H  856  1  0.54752100  0.54735000  0.41394600  1
  H  881  1  0.06725600  0.91565800  0.26580000  1
  H  882  1  0.03656900  0.92143400  0.22850600  1
  H  883  1  0.96219100  0.97045900  0.18235400  1
  H  884  1  0.93158600  0.00807700  0.17877200  1
  H  885  1  0.96189900  0.04032700  0.25158900  1
  H  886  1  0.03531000  0.98506300  0.30349300  1
  H  887  1  0.96190100  0.96111900  0.27775100  1
  H  888  1  0.93159200  0.99336700  0.35057200  1
  H  889  1  0.96219800  0.03098600  0.34698900  1
  H  890  1  0.03530800  0.01638400  0.22584400  1
  H  891  1  0.03657200  0.08001100  0.30083300  1
  H  892  1  0.06725400  0.08579000  0.26353800  1
  H  895  1  0.01145700  0.96008400  0.20164800  1
  H  896  1  0.98681800  0.94076700  0.21942800  1
  H  898  1  0.98682200  0.06067900  0.30991300  1
  H  899  1  0.01146200  0.04136100  0.32769100  1
  H  901  1  0.91496100  0.05243400  0.22852400  1
  H  903  1  0.08127000  0.96240100  0.31548700  1
  H  905  1  0.91496500  0.94900800  0.30082200  1
  H  907  1  0.08127100  0.03905200  0.21385300  1
  H  932  1  0.43419100  0.08579000  0.76581100  1
  H  933  1  0.46487100  0.08001400  0.72851600  1
  H  934  1  0.53924700  0.03099400  0.68235600  1
  H  935  1  0.56985700  0.99338000  0.67877200  1
  H  936  1  0.53955000  0.96112500  0.75159100  1
  H  937  1  0.46613800  0.01638000  0.80349900  1
  H  938  1  0.53954300  0.04032600  0.77775000  1
  H  939  1  0.56985700  0.00807800  0.85057000  1
  H  940  1  0.53925100  0.97046100  0.84698900  1
  H  941  1  0.46613600  0.98505900  0.72584800  1
  H  942  1  0.46487700  0.92143200  0.80083700  1
  H  943  1  0.43419300  0.91565200  0.76354100  1
  H  946  1  0.48998300  0.04136600  0.70165400  1
  H  947  1  0.51462100  0.06068200  0.71943400  1
  H  949  1  0.51462500  0.94076700  0.80991700  1
  H  950  1  0.48998500  0.96008600  0.82769200  1
  H  952  1  0.58648900  0.94902300  0.72852000  1
  H  954  1  0.42017500  0.03904700  0.81549800  1
  H  956  1  0.58648100  0.05243400  0.80081400  1
  H  958  1  0.42017500  0.96239400  0.71385700  1
  H  983  1  0.33657300  0.81579700  0.51926000  1
  H  984  1  0.33166000  0.78552000  0.48153400  1
  H  985  1  0.28400100  0.71129700  0.43376100  1
  H  986  1  0.24596300  0.68148900  0.42839000  1
  H  987  1  0.21106300  0.71237100  0.49972800  1
  H  988  1  0.26532200  0.78470400  0.55415100  1
  H  989  1  0.29038500  0.71237300  0.52961400  1
  H  990  1  0.25548900  0.68149300  0.60095500  1
  H  991  1  0.21745100  0.71130100  0.59558700  1
  H  992  1  0.23611400  0.78469600  0.47518700  1
  H  993  1  0.16978800  0.78552000  0.54781400  1
  H  994  1  0.16486600  0.81579100  0.51008400  1
  H  997  1  0.29391600  0.76055300  0.45319200  1
  H  998  1  0.31234900  0.73595100  0.47193600  1
  H  1000  1  0.18909800  0.73595100  0.55741600  1
  H  1001  1  0.20753400  0.76055700  0.57615200  1
  H  1003  1  0.19688000  0.66762400  0.47579600  1
  H  1005  1  0.28886600  0.82954900  0.56850000  1
  H  1007  1  0.30457300  0.66762800  0.55354600  1
  H  1009  1  0.21257200  0.82954500  0.46084800  1
  H  1034  1  0.16486700  0.18565200  0.01925650  1
  H  1035  1  0.16979100  0.21592200  0.98152400  1
  H  1036  1  0.21745500  0.29014300  0.93375600  1
  H  1037  1  0.25549500  0.31995500  0.92839000  1
  H  1038  1  0.29038300  0.28907700  0.99973400  1
  H  1039  1  0.23611400  0.21674600  0.05415450  1
  H  1040  1  0.21105900  0.28907300  0.02960750  1
  H  1041  1  0.24594000  0.31995300  0.10095300  1
  H  1042  1  0.28398300  0.29014300  0.09559150  1
  H  1043  1  0.26533400  0.21674400  0.97519100  1
  H  1044  1  0.33165600  0.21592800  0.04782550  1
  H  1045  1  0.33658100  0.18565700  0.01009350  1
  H  1048  1  0.20753600  0.24088700  0.95318800  1
  H  1049  1  0.18910200  0.26549300  0.97192600  1
  H  1051  1  0.31233900  0.26549500  0.05742250  1
  H  1052  1  0.29390500  0.24088700  0.07615850  1
  H  1054  1  0.30456700  0.33382000  0.97580200  1
  H  1056  1  0.21256400  0.17189800  0.06849450  1
  H  1058  1  0.19687000  0.33381600  0.05353450  1
  H  1060  1  0.28888800  0.17189700  0.96085500  1
  H  1085  1  0.66329700  0.18686800  0.00836946  1
  H  1086  1  0.66921000  0.21566200  0.04710650  1
  H  1087  1  0.71823700  0.28797100  0.09645050  1
  H  1088  1  0.75555900  0.31881000  0.10110300  1
  H  1089  1  0.78958100  0.28933300  0.02876250  1
  H  1090  1  0.73580500  0.21637500  0.97475300  1
  H  1091  1  0.71187600  0.28934100  0.00058546  1
  H  1092  1  0.74590800  0.31882200  0.92824700  1
  H  1093  1  0.78322600  0.28797700  0.93290100  1
  H  1094  1  0.76564100  0.21637000  0.05459050  1
  H  1095  1  0.83223500  0.21565200  0.98223600  1
  H  1096  1  0.83814500  0.18685600  0.02097450  1
  H  1099  1  0.70829800  0.23878600  0.07615450  1
  H  1100  1  0.68950500  0.26389300  0.05847450  1
  H  1102  1  0.81195200  0.26388700  0.97087500  1
  H  1103  1  0.79315300  0.23878800  0.95318800  1
  H  1105  1  0.80032800  0.33643700  0.05225350  1
  H  1107  1  0.70994700  0.17056200  0.96124500  1
  H  1109  1  0.70113700  0.33645400  0.97709600  1
  H  1111  1  0.79149400  0.17055600  0.06810250  1
  H  1136  1  0.83815900  0.81458100  0.50836300  1
  H  1137  1  0.83224700  0.78578600  0.54709800  1
  H  1138  1  0.78322400  0.71347300  0.59643700  1
  H  1139  1  0.74590800  0.68262600  0.60108500  1
  H  1140  1  0.71187600  0.71211700  0.52875400  1
  H  1141  1  0.76564500  0.78508600  0.47475200  1
  H  1142  1  0.78958100  0.71212300  0.50058200  1
  H  1143  1  0.75556100  0.68264700  0.42823800  1
  H  1144  1  0.71824100  0.71349000  0.43288900  1
  H  1145  1  0.73580100  0.78508200  0.55459000  1
  H  1146  1  0.66921200  0.78579900  0.48223000  1
  H  1147  1  0.66329500  0.81458500  0.52097100  1
  H  1150  1  0.79316100  0.76266100  0.57615200  1
  H  1151  1  0.81195200  0.73755900  0.55846000  1
  H  1153  1  0.68950700  0.73757200  0.47085800  1
  H  1154  1  0.70830800  0.76267700  0.45318300  1
  H  1156  1  0.70114100  0.66500100  0.55223700  1
  H  1158  1  0.79151200  0.83089100  0.46123100  1
  H  1160  1  0.80032400  0.66501300  0.47709500  1
  H  1162  1  0.70993700  0.83089300  0.56809600  1
  H  1187  1  0.56534100  0.41314800  0.77384700  1
  H  1188  1  0.53629900  0.41775700  0.73513100  1
  H  1189  1  0.46496700  0.46595100  0.68372400  1
  H  1190  1  0.43610700  0.50442000  0.67651600  1
  H  1191  1  0.46465800  0.53994300  0.74850400  1
  H  1192  1  0.53656700  0.48710400  0.80486900  1
  H  1193  1  0.46465400  0.46151100  0.78083600  1
  H  1194  1  0.43610700  0.49703600  0.85282400  1
  H  1195  1  0.46497100  0.53550100  0.84561600  1
  H  1196  1  0.53657300  0.51434300  0.72447300  1
  H  1197  1  0.53631100  0.58368500  0.79421600  1
  H  1198  1  0.56535700  0.58829000  0.75549900  1
  H  1201  1  0.51321200  0.45556400  0.70477900  1
  H  1202  1  0.48795200  0.43803400  0.72351100  1
  H  1204  1  0.48795800  0.56341600  0.80582900  1
  H  1205  1  0.51321600  0.54588200  0.82456300  1
  H  1207  1  0.41924100  0.55278900  0.72153500  1
  H  1209  1  0.58195900  0.46139900  0.81951600  1
  H  1211  1  0.41923700  0.44866500  0.80780500  1
  H  1213  1  0.58197200  0.54004100  0.70983200  1
  H  1238  1  0.93609100  0.58828800  0.27382700  1
  H  1239  1  0.96514000  0.58367900  0.23511500  1
  H  1240  1  0.03648700  0.53549100  0.18372400  1
  H  1241  1  0.06535000  0.49702800  0.17652100  1
  H  1242  1  0.03679200  0.46150500  0.24850700  1
  H  1243  1  0.96487800  0.51434700  0.30486600  1
  H  1244  1  0.03679000  0.53994300  0.28084100  1
  H  1245  1  0.06535100  0.50441400  0.35282100  1
  H  1246  1  0.03649100  0.46594700  0.34561300  1
  H  1247  1  0.96488800  0.48710100  0.22447000  1
  H  1248  1  0.96515800  0.41775500  0.29420800  1
  H  1249  1  0.93611600  0.41314400  0.25549300  1
  H  1252  1  0.98824300  0.54587200  0.20476900  1
  H  1253  1  0.01349100  0.56341400  0.22350700  1
  H  1255  1  0.01350000  0.43803200  0.30582500  1
  H  1256  1  0.98824300  0.45556200  0.32456500  1
  H  1258  1  0.08219900  0.44863000  0.22154200  1
  H  1260  1  0.91948100  0.54004700  0.31951000  1
  H  1262  1  0.08220500  0.55280000  0.30780700  1
  H  1264  1  0.91949900  0.46139300  0.20981200  1
  H  1271  1  0.80800500  0.82012400  0.38832000  1
  H  1278  1  0.91876000  0.84833300  0.37621800  1
  H  1279  1  0.94794000  0.87768000  0.35081600  1
  H  1280  1  0.88310900  0.93281000  0.34033800  1
  H  1281  1  0.86414600  0.82916900  0.45211600  1
  H  1282  1  0.85412200  0.90363000  0.36574000  1
  H  1283  1  0.89164500  0.85766900  0.42416400  1
  H  1288  1  0.94685200  0.91515200  0.31111300  1
  H  1289  1  0.95435600  0.93074100  0.34257800  1
  H  1291  1  0.82978000  0.78665500  0.44587600  1
  H  1292  1  0.79916200  0.79589100  0.42980300  1
  H  1299  1  0.69345800  0.18131200  0.88831600  1
  H  1306  1  0.58270100  0.15310100  0.87622600  1
  H  1307  1  0.55351600  0.12375800  0.85082200  1
  H  1308  1  0.61834700  0.06863300  0.84032100  1
  H  1309  1  0.63731700  0.17226800  0.95211200  1
  H  1310  1  0.64733900  0.09780900  0.86572500  1
  H  1311  1  0.60981600  0.14376800  0.92416200  1
  H  1316  1  0.55459400  0.08629100  0.81111000  1
  H  1317  1  0.54710200  0.07070700  0.84258100  1
  H  1319  1  0.67167500  0.21478300  0.94586100  1
  H  1320  1  0.70229600  0.20554700  0.92979900  1
  H  1327  1  0.44267500  0.57421800  0.64171200  1
  H  1334  1  0.39531900  0.67642800  0.64083500  1
  H  1335  1  0.36549800  0.70441400  0.61456400  1
  H  1336  1  0.32249900  0.63463300  0.58929200  1
  H  1337  1  0.40961500  0.61034800  0.71179000  1
  H  1338  1  0.35245700  0.60677000  0.61520400  1
  H  1339  1  0.38058700  0.63778800  0.68409600  1
  H  1344  1  0.33402700  0.70216200  0.56892400  1
  H  1345  1  0.31485700  0.70575400  0.59906700  1
  H  1347  1  0.45431700  0.58434100  0.71403900  1
  H  1348  1  0.46497900  0.56693900  0.68478600  1
  H  1355  1  0.05874900  0.42723100  0.14167600  1
  H  1362  1  0.10611200  0.32503300  0.14081700  1
  H  1363  1  0.13593200  0.29704200  0.11455000  1
  H  1364  1  0.17893600  0.36681700  0.08927350  1
  H  1365  1  0.09182600  0.39113300  0.21176400  1
  H  1366  1  0.14897700  0.39468600  0.11518000  1
  H  1367  1  0.12085400  0.36368700  0.18407600  1
  H  1372  1  0.16740800  0.29928400  0.06890850  1
  H  1373  1  0.18656800  0.29570000  0.09905750  1
  H  1375  1  0.04709100  0.41712100  0.21398900  1
  H  1376  1  0.03647500  0.43456400  0.18474200  1
  H  1383  1  0.69346800  0.82015400  0.64102200  1
  H  1390  1  0.58270700  0.84833500  0.65313900  1
  H  1391  1  0.55352400  0.87768000  0.67854300  1
  H  1392  1  0.61834100  0.93283100  0.68899500  1
  H  1393  1  0.63730700  0.82916300  0.57723600  1
  H  1394  1  0.64733300  0.90365200  0.66359300  1
  H  1395  1  0.60980800  0.85766500  0.60518600  1
  H  1400  1  0.55460900  0.91515800  0.71823600  1
  H  1401  1  0.54709800  0.93074100  0.68677000  1
  H  1403  1  0.67168500  0.78665700  0.58348800  1
  H  1404  1  0.70230400  0.79591000  0.59954400  1
  H  1411  1  0.80799400  0.18132200  0.14102200  1
  H  1418  1  0.91874800  0.15310100  0.15311100  1
  H  1419  1  0.94793200  0.12375800  0.17851700  1
  H  1420  1  0.88309700  0.06863800  0.18902200  1
  H  1421  1  0.86413000  0.17225900  0.07722050  1
  H  1422  1  0.85410600  0.09781500  0.16361600  1
  H  1423  1  0.89162900  0.14376100  0.10517400  1
  H  1428  1  0.94685000  0.08629100  0.21823200  1
  H  1429  1  0.95434200  0.07070800  0.18676200  1
  H  1431  1  0.82977600  0.21477700  0.08346650  1
  H  1432  1  0.79915600  0.20554900  0.09953650  1
  H  1439  1  0.05876400  0.57421800  0.38764800  1
  H  1446  1  0.10612300  0.67642200  0.38851700  1
  H  1447  1  0.13594600  0.70440800  0.41478500  1
  H  1448  1  0.17895000  0.63462900  0.44005300  1
  H  1449  1  0.09183100  0.61033000  0.31756500  1
  H  1450  1  0.14899000  0.60676400  0.41414500  1
  H  1451  1  0.12086000  0.63777400  0.34525600  1
  H  1456  1  0.16742100  0.70215800  0.46042300  1
  H  1457  1  0.18658700  0.70575000  0.43027800  1
  H  1459  1  0.04711300  0.58433300  0.31532800  1
  H  1460  1  0.03647300  0.56691300  0.34457900  1
  H  1467  1  0.44267500  0.42724100  0.88763400  1
  H  1474  1  0.39532400  0.32503500  0.88851700  1
  H  1475  1  0.36550800  0.29704600  0.91479200  1
  H  1476  1  0.32249900  0.36682100  0.94006000  1
  H  1477  1  0.40960700  0.39111300  0.81755900  1
  H  1478  1  0.35245300  0.39468800  0.91414700  1
  H  1479  1  0.38057900  0.36367400  0.84525500  1
  H  1484  1  0.33403300  0.29929200  0.96043500  1
  H  1485  1  0.31487700  0.29569800  0.93028600  1
  H  1487  1  0.45431300  0.41711500  0.81530700  1
  H  1488  1  0.46497300  0.43452100  0.84455800  1
  H  1495  1  0.18210400  0.18544100  0.14000100  1
  H  1502  1  0.07899000  0.13418000  0.13007200  1
  H  1503  1  0.04914000  0.10588800  0.15559600  1
  H  1504  1  0.11633300  0.07275900  0.19728700  1
  H  1505  1  0.14361400  0.15828800  0.06873150  1
  H  1506  1  0.14621100  0.10002200  0.17088400  1
  H  1507  1  0.11711900  0.12717700  0.09457850  1
  H  1512  1  0.04468100  0.08563100  0.20325200  1
  H  1513  1  0.04918500  0.05640200  0.18292400  1
  H  1515  1  0.16602800  0.20943500  0.07825850  1
  H  1516  1  0.19578000  0.20590200  0.09787150  1
  H  1523  1  0.31935400  0.81601000  0.63999800  1
  H  1530  1  0.42244500  0.86728700  0.63006200  1
  H  1531  1  0.45229900  0.89556700  0.65559400  1
  H  1532  1  0.38510900  0.92869900  0.69728900  1
  H  1533  1  0.35781500  0.84317800  0.56872100  1
  H  1534  1  0.35522800  0.90144500  0.67087800  1
  H  1535  1  0.38430500  0.87430000  0.59455900  1
  H  1540  1  0.45674200  0.91579200  0.70326000  1
  H  1541  1  0.45228100  0.94503700  0.68294600  1
  H  1543  1  0.33542800  0.79203800  0.57824700  1
  H  1544  1  0.30567500  0.79554600  0.59786500  1
  H  1551  1  0.57189900  0.44451700  0.89273500  1
  H  1558  1  0.59939000  0.33324800  0.90368600  1
  H  1559  1  0.62909600  0.30372400  0.92827000  1
  H  1560  1  0.68465300  0.36826500  0.93830800  1
  H  1561  1  0.57937500  0.38862700  0.82851000  1
  H  1562  1  0.65512500  0.39758100  0.91372000  1
  H  1563  1  0.60794800  0.36064700  0.85588200  1
  H  1568  1  0.66719800  0.30433300  0.96729500  1
  H  1569  1  0.68235600  0.29708700  0.93554900  1
  H  1571  1  0.53745800  0.42367700  0.83548500  1
  H  1572  1  0.54750600  0.45409000  0.85145500  1
  H  1579  1  0.92956400  0.55694800  0.39272500  1
  H  1586  1  0.90205900  0.66821300  0.40366100  1
  H  1587  1  0.87235700  0.69773800  0.42824800  1
  H  1588  1  0.81681400  0.63319100  0.43832600  1
  H  1589  1  0.92205100  0.61281900  0.32848900  1
  H  1590  1  0.84633800  0.60387100  0.41373500  1
  H  1591  1  0.89348600  0.64080300  0.35586600  1
  H  1596  1  0.83426500  0.69713300  0.46729100  1
  H  1597  1  0.81910900  0.70436900  0.43554100  1
  H  1599  1  0.96397600  0.57778300  0.33545900  1
  H  1600  1  0.95394200  0.54737000  0.35143700  1
  H  1607  1  0.31934000  0.18543700  0.88934200  1
  H  1614  1  0.42245900  0.13418700  0.89926400  1
  H  1615  1  0.45230900  0.10589400  0.87373900  1
  H  1616  1  0.38511300  0.07275400  0.83206200  1
  H  1617  1  0.35783900  0.15829500  0.96061100  1
  H  1618  1  0.35523600  0.10001800  0.85846400  1
  H  1619  1  0.38433500  0.12718400  0.93476500  1
  H  1624  1  0.45676200  0.08563200  0.82608400  1
  H  1625  1  0.45226700  0.05640600  0.84641800  1
  H  1627  1  0.33542000  0.20943900  0.95108100  1
  H  1628  1  0.30566500  0.20590000  0.93147200  1
  H  1635  1  0.18209900  0.81602000  0.38933800  1
  H  1642  1  0.07900000  0.86728100  0.39926600  1
  H  1643  1  0.04914700  0.89556100  0.37373400  1
  H  1644  1  0.11633900  0.92870900  0.33205700  1
  H  1645  1  0.14362200  0.84317000  0.46061400  1
  H  1646  1  0.14622000  0.90145800  0.35846700  1
  H  1647  1  0.11713300  0.87429300  0.43477700  1
  H  1652  1  0.04470900  0.91579400  0.32607000  1
  H  1653  1  0.04916100  0.94503700  0.34639000  1
  H  1655  1  0.16601600  0.79203200  0.45108000  1
  H  1656  1  0.19577200  0.79555000  0.43146900  1
  H  1663  1  0.92958000  0.44449300  0.13660800  1
  H  1670  1  0.90207700  0.33322900  0.12566500  1
  H  1671  1  0.87236900  0.30370600  0.10108100  1
  H  1672  1  0.81681800  0.36825300  0.09103550  1
  H  1673  1  0.92208400  0.38861700  0.20084000  1
  H  1674  1  0.84634800  0.39756900  0.11562000  1
  H  1675  1  0.89351300  0.36063500  0.17346700  1
  H  1680  1  0.83426700  0.30431700  0.06205650  1
  H  1681  1  0.81911100  0.29707300  0.09380250  1
  H  1683  1  0.96400300  0.42366100  0.19387600  1
  H  1684  1  0.95396600  0.45407000  0.17789100  1
  H  1691  1  0.57190700  0.55692500  0.63660800  1
  H  1698  1  0.59939800  0.66819300  0.62565800  1
  H  1699  1  0.62909800  0.69771800  0.60107300  1
  H  1700  1  0.68465100  0.63317900  0.59101000  1
  H  1701  1  0.57939700  0.61281100  0.70083400  1
  H  1702  1  0.65512900  0.60385900  0.61560200  1
  H  1703  1  0.60796400  0.64079100  0.67345700  1
  H  1708  1  0.66719400  0.69711500  0.56203500  1
  H  1709  1  0.68234600  0.70435700  0.59378600  1
  H  1711  1  0.53747700  0.57776700  0.69386000  1
  H  1712  1  0.54752100  0.54735000  0.67789100  1
  C  1  1  0.01727100  0.02526200  0.00011400  1
  C  2  1  0.01764100  0.04429000  0.02178000  1
  C  3  1  0.98035300  0.01863300  0.04589100  1
  C  4  1  0.98028000  0.99848000  0.02525400  1
  C  5  1  0.96227700  0.97606300  0.02822100  1
  C  6  1  0.94441600  0.97394500  0.05055200  1
  C  7  1  0.94436500  0.99454300  0.07028100  1
  C  8  1  0.96233600  0.01650200  0.06813400  1
  C  9  1  0.03610200  0.06626700  0.02130100  1
  C  10  1  0.05415900  0.06966000  0.99956800  1
  C  11  1  0.05367200  0.05156000  0.97752500  1
  C  12  1  0.03526000  0.02959900  0.97791900  1
  C  13  1  0.01727100  0.97618500  0.00133400  1
  C  14  1  0.01764000  0.95715600  0.97966900  1
  C  15  1  0.98034900  0.98281200  0.95556000  1
  C  16  1  0.98028000  0.00296600  0.97619500  1
  C  17  1  0.96233400  0.98494600  0.93331600  1
  C  18  1  0.94436700  0.00690800  0.93116600  1
  C  19  1  0.94441400  0.02750000  0.95089900  1
  C  20  1  0.96227500  0.02538400  0.97323000  1
  C  21  1  0.03525900  0.97184600  0.02353100  1
  C  22  1  0.05367800  0.94989200  0.02391800  1
  C  23  1  0.05416900  0.93179500  0.00187400  1
  C  24  1  0.03610200  0.93518000  0.98014800  1
  C  37  1  0.99872200  0.00072300  0.00072300  1
  C  38  1  0.99906700  0.95929000  0.95612900  1
  C  41  1  0.99906900  0.04215600  0.04532100  1
  C  52  1  0.48417400  0.97618100  0.50011600  1
  C  53  1  0.48380600  0.95715400  0.52178200  1
  C  54  1  0.52109400  0.98281400  0.54589200  1
  C  55  1  0.52116500  0.00296500  0.52525400  1
  C  56  1  0.53916600  0.02538400  0.52822000  1
  C  57  1  0.55703100  0.02750000  0.55055000  1
  C  58  1  0.55708400  0.00690300  0.57027900  1
  C  59  1  0.53911100  0.98494600  0.56813500  1
  C  60  1  0.46534600  0.93517600  0.52130300  1
  C  61  1  0.44728800  0.93178300  0.49957200  1
  C  62  1  0.44777400  0.94988300  0.47752800  1
  C  63  1  0.46618500  0.97184400  0.47792000  1
  C  64  1  0.48417000  0.02525900  0.50133800  1
  C  65  1  0.48380000  0.04429000  0.47967400  1
  C  66  1  0.52109000  0.01863600  0.45556200  1
  C  67  1  0.52116300  0.99848200  0.47619600  1
  C  68  1  0.53910500  0.01650600  0.43331700  1
  C  69  1  0.55707600  0.99454500  0.43116700  1
  C  70  1  0.55703100  0.97395300  0.45089800  1
  C  71  1  0.53916600  0.97606300  0.47322600  1
  C  72  1  0.46617900  0.02959200  0.52353200  1
  C  73  1  0.44776800  0.05155300  0.52392800  1
  C  74  1  0.44728200  0.06965600  0.50188900  1
  C  75  1  0.46533800  0.06626600  0.48015600  1
  C  88  1  0.50272100  0.00072100  0.50072700  1
  C  89  1  0.50237200  0.04215800  0.45613500  1
  C  92  1  0.50237600  0.95929000  0.54532400  1
  C  103  1  0.22619500  0.76690000  0.24931100  1
  C  104  1  0.20632200  0.76704600  0.27021100  1
  C  105  1  0.23113100  0.72968600  0.29507100  1
  C  106  1  0.25211900  0.72990100  0.27528900  1
  C  107  1  0.27470400  0.71232000  0.27928500  1
  C  108  1  0.27622100  0.69460100  0.30177500  1
  C  109  1  0.25469500  0.69405900  0.32048300  1
  C  110  1  0.23252000  0.71161200  0.31732800  1
  C  111  1  0.18417600  0.78525700  0.26886900  1
  C  112  1  0.18129700  0.80309700  0.24688900  1
  C  113  1  0.20014600  0.80267300  0.22547700  1
  C  114  1  0.22243100  0.78470400  0.22686500  1
  C  115  1  0.27524700  0.76690400  0.25214100  1
  C  116  1  0.29512000  0.76705200  0.23124100  1
  C  117  1  0.27031700  0.72968600  0.20638300  1
  C  118  1  0.24932700  0.72989900  0.22616500  1
  C  119  1  0.26893200  0.71160800  0.18413100  1
  C  120  1  0.24675500  0.69405500  0.18097200  1
  C  121  1  0.22522500  0.69460100  0.19967700  1
  C  122  1  0.22674400  0.71231800  0.22216900  1
  C  123  1  0.27900700  0.78471000  0.27458500  1
  C  124  1  0.30128600  0.80268900  0.27596900  1
  C  125  1  0.32015000  0.80309300  0.25457100  1
  C  126  1  0.31726500  0.78526300  0.23258300  1
  C  139  1  0.25072200  0.74837900  0.25072600  1
  C  140  1  0.29388100  0.74830000  0.20778000  1
  C  143  1  0.20756500  0.74830000  0.29367600  1
  C  154  1  0.27525100  0.23454400  0.74931500  1
  C  155  1  0.29512000  0.23439800  0.77021800  1
  C  156  1  0.27030700  0.27175600  0.79507500  1
  C  157  1  0.24932300  0.27154500  0.77528700  1
  C  158  1  0.22673700  0.28912600  0.77927900  1
  C  159  1  0.22521300  0.30683900  0.80177300  1
  C  160  1  0.24673800  0.30738300  0.82048300  1
  C  161  1  0.26891600  0.28983500  0.81732800  1
  C  162  1  0.31726700  0.21619000  0.76887800  1
  C  163  1  0.32016000  0.19836300  0.74688900  1
  C  164  1  0.30130400  0.19877400  0.72548300  1
  C  165  1  0.27901700  0.21674000  0.72687000  1
  C  166  1  0.22619700  0.23454200  0.75213700  1
  C  167  1  0.20632600  0.23439400  0.73123700  1
  C  168  1  0.23113500  0.27175600  0.70637900  1
  C  169  1  0.25212100  0.27154300  0.72616300  1
  C  170  1  0.23252600  0.28982900  0.68412300  1
  C  171  1  0.25470800  0.30737100  0.68095900  1
  C  172  1  0.27622900  0.30683900  0.69967500  1
  C  173  1  0.27470600  0.28912400  0.72216900  1
  C  174  1  0.22243300  0.21673800  0.77458300  1
  C  175  1  0.20014700  0.19876900  0.77597200  1
  C  176  1  0.18129700  0.19834700  0.75456000  1
  C  177  1  0.18418000  0.21618400  0.73257900  1
  C  190  1  0.25072200  0.25306500  0.75072600  1
  C  191  1  0.20756900  0.25314400  0.70777400  1
  C  194  1  0.29387300  0.25314600  0.79368200  1
  C  205  1  0.77530200  0.23368700  0.75228200  1
  C  206  1  0.79518500  0.23348200  0.73139100  1
  C  207  1  0.76995600  0.27023600  0.70599200  1
  C  208  1  0.74933400  0.27059700  0.72614900  1
  C  209  1  0.72712800  0.28874400  0.72255500  1
  C  210  1  0.72563500  0.30646100  0.70006700  1
  C  211  1  0.74662100  0.30615300  0.68075400  1
  C  212  1  0.76839600  0.28803600  0.68352400  1
  C  213  1  0.81781700  0.21592000  0.73326300  1
  C  214  1  0.82130300  0.19896700  0.75585900  1
  C  215  1  0.80236400  0.19936100  0.77718000  1
  C  216  1  0.77938300  0.21638100  0.77507600  1
  C  217  1  0.72614300  0.23369500  0.74916700  1
  C  218  1  0.70626200  0.23349000  0.77005900  1
  C  219  1  0.73150300  0.27023200  0.79546700  1
  C  220  1  0.75212300  0.27059300  0.77531000  1
  C  221  1  0.73306600  0.28802800  0.81793700  1
  C  222  1  0.75484400  0.30614000  0.82070800  1
  C  223  1  0.77583000  0.30644700  0.80139400  1
  C  224  1  0.77433700  0.28873000  0.77890600  1
  C  225  1  0.72205800  0.21639300  0.72637000  1
  C  226  1  0.69907400  0.19937700  0.72426700  1
  C  227  1  0.68012500  0.19900100  0.74557900  1
  C  228  1  0.68362500  0.21593600  0.76818500  1
  C  241  1  0.75072600  0.25213100  0.75072600  1
  C  242  1  0.70797700  0.25155600  0.79403600  1
  C  245  1  0.79347500  0.25155400  0.70741900  1
  C  256  1  0.72614300  0.76776500  0.25228100  1
  C  257  1  0.70626600  0.76797000  0.23138700  1
  C  258  1  0.73150500  0.73122700  0.20598100  1
  C  259  1  0.75212300  0.73086300  0.22614300  1
  C  260  1  0.77433300  0.71272000  0.22255100  1
  C  261  1  0.77582800  0.69500500  0.20006200  1
  C  262  1  0.75484400  0.69531400  0.18074600  1
  C  263  1  0.73306800  0.71343300  0.18351200  1
  C  264  1  0.68363100  0.78553100  0.23325700  1
  C  265  1  0.68012300  0.80245600  0.25587100  1
  C  266  1  0.69906800  0.80207400  0.27718600  1
  C  267  1  0.72206000  0.78506800  0.27507800  1
  C  268  1  0.77530400  0.76776900  0.24916900  1
  C  269  1  0.79518500  0.76797200  0.27005900  1
  C  270  1  0.76995200  0.73122100  0.29546100  1
  C  271  1  0.74932900  0.73086100  0.27530300  1
  C  272  1  0.76839200  0.71342100  0.31792900  1
  C  273  1  0.74660900  0.69531400  0.32070200  1
  C  274  1  0.72563100  0.69499500  0.30138100  1
  C  275  1  0.72712100  0.71271600  0.27889500  1
  C  276  1  0.77938900  0.78507200  0.22637400  1
  C  277  1  0.80237200  0.80208600  0.22426900  1
  C  278  1  0.82131100  0.80247800  0.24558900  1
  C  279  1  0.81781700  0.78553700  0.26819300  1
  C  292  1  0.75072400  0.74932700  0.25072400  1
  C  293  1  0.79347700  0.74989600  0.29402900  1
  C  296  1  0.70798100  0.74990600  0.20741100  1
  C  307  1  0.51904500  0.52526200  0.49845700  1
  C  308  1  0.51889700  0.54598600  0.51851700  1
  C  309  1  0.48230200  0.52140800  0.54474500  1
  C  310  1  0.48215400  0.50006300  0.52534900  1
  C  311  1  0.46478400  0.47747400  0.53017300  1
  C  312  1  0.44807200  0.47599800  0.55342300  1
  C  313  1  0.44797300  0.49777300  0.57184000  1
  C  314  1  0.46495600  0.52021000  0.56758900  1
  C  315  1  0.53629300  0.56866900  0.51589600  1
  C  316  1  0.55338400  0.57140200  0.49330600  1
  C  317  1  0.55326900  0.55164600  0.47273700  1
  C  318  1  0.53642700  0.52862200  0.47560600  1
  C  319  1  0.51904100  0.47618600  0.50299500  1
  C  320  1  0.51889100  0.45546100  0.48293500  1
  C  321  1  0.48230200  0.48004200  0.45670500  1
  C  322  1  0.48215800  0.50138900  0.47609900  1
  C  323  1  0.46496100  0.48124600  0.43385800  1
  C  324  1  0.44797900  0.50368300  0.42960800  1
  C  325  1  0.44807600  0.52545900  0.44802300  1
  C  326  1  0.46479400  0.52398500  0.47127300  1
  C  327  1  0.53641900  0.47282200  0.52584900  1
  C  328  1  0.55325800  0.44979600  0.52872000  1
  C  329  1  0.55337400  0.43004100  0.50814800  1
  C  330  1  0.53628500  0.43277500  0.48555800  1
  C  343  1  0.50060100  0.50072500  0.50072500  1
  C  344  1  0.50058700  0.45630100  0.45910100  1
  C  347  1  0.50059100  0.54514700  0.54235100  1
  C  358  1  0.98241000  0.47618600  0.99845600  1
  C  359  1  0.98255600  0.45546500  0.01851900  1
  C  360  1  0.01915500  0.48004000  0.04474300  1
  C  361  1  0.01929500  0.50138900  0.02535300  1
  C  362  1  0.03665900  0.52398300  0.03017900  1
  C  363  1  0.05338400  0.52545300  0.05342200  1
  C  364  1  0.05348100  0.50367700  0.07183900  1
  C  365  1  0.03649600  0.48124200  0.06759000  1
  C  366  1  0.96515600  0.43278400  0.01590100  1
  C  367  1  0.94806600  0.43004900  0.99331300  1
  C  368  1  0.94818600  0.44979800  0.97273700  1
  C  369  1  0.96503400  0.47282000  0.97560000  1
  C  370  1  0.98240800  0.52526200  0.00299300  1
  C  371  1  0.98255000  0.54598000  0.98292500  1
  C  372  1  0.01916000  0.52140800  0.95671200  1
  C  373  1  0.01930100  0.50006100  0.97610300  1
  C  374  1  0.03651500  0.52021200  0.93387400  1
  C  375  1  0.05350100  0.49777700  0.92962700  1
  C  376  1  0.05339600  0.47600000  0.94804000  1
  C  377  1  0.03667000  0.47747000  0.97128300  1
  C  378  1  0.96502800  0.52862600  0.02584500  1
  C  379  1  0.94817600  0.55164400  0.02870400  1
  C  380  1  0.94806200  0.57139800  0.00813200  1
  C  381  1  0.96515400  0.56866300  0.98554500  1
  C  394  1  0.00085100  0.50072500  0.00072600  1
  C  395  1  0.00086300  0.54514100  0.95909500  1
  C  398  1  0.00086600  0.45630100  0.04235000  1
  C  409  1  0.83326400  0.82225800  0.15897800  1
  C  410  1  0.85783100  0.83328600  0.16880500  1
  C  411  1  0.87408600  0.84989300  0.15225000  1
  C  412  1  0.86635500  0.85599400  0.12526700  1
  C  413  1  0.84172300  0.84495300  0.11503900  1
  C  414  1  0.82552400  0.82825700  0.13202100  1
  C  416  1  0.88349700  0.87297600  0.10924900  1
  C  417  1  0.91097400  0.86603600  0.10465600  1
  C  418  1  0.92809800  0.88324100  0.08956900  1
  C  419  1  0.91846600  0.90805400  0.07876000  1
  C  420  1  0.89092400  0.91491700  0.08339600  1
  C  421  1  0.87372700  0.89765500  0.09834000  1
  C  431  1  0.93798400  0.92619300  0.06428900  1
  C  434  1  0.81687900  0.80395400  0.17658200  1
  C  437  1  0.66820300  0.17917200  0.65897700  1
  C  438  1  0.64363500  0.16814500  0.66880400  1
  C  439  1  0.62737800  0.15154000  0.65224800  1
  C  440  1  0.63510800  0.14543800  0.62526500  1
  C  441  1  0.65974000  0.15648100  0.61503600  1
  C  442  1  0.67594200  0.17317200  0.63202000  1
  C  444  1  0.61796400  0.12846100  0.60924500  1
  C  445  1  0.59048700  0.13540100  0.60465900  1
  C  446  1  0.57336300  0.11820400  0.58955900  1
  C  447  1  0.58299300  0.09339300  0.57874500  1
  C  448  1  0.61053100  0.08652000  0.58339500  1
  C  449  1  0.62772800  0.10377600  0.59834200  1
  C  459  1  0.56346900  0.07525200  0.56428500  1
  C  462  1  0.68458000  0.19748500  0.67657800  1
  C  465  1  0.42908800  0.58993700  0.41533700  1
  C  466  1  0.41067100  0.60841500  0.42718600  1
  C  467  1  0.39369300  0.62457500  0.41088000  1
  C  468  1  0.39431200  0.62235900  0.38226200  1
  C  469  1  0.41246600  0.60361700  0.37001100  1
  C  470  1  0.42961600  0.58767100  0.38672700  1
  C  472  1  0.37674000  0.63894900  0.36648800  1
  C  473  1  0.38006100  0.66742700  0.36601500  1
  C  474  1  0.36261700  0.68383200  0.35042400  1
  C  475  1  0.34107700  0.67240100  0.33521700  1
  C  476  1  0.33785600  0.64382800  0.33583000  1
  C  477  1  0.35552500  0.62733000  0.35108000  1
  C  487  1  0.32239500  0.69100800  0.32027200  1
  C  490  1  0.44700800  0.57279000  0.43257200  1
  C  493  1  0.07234600  0.41153000  0.91530700  1
  C  494  1  0.09077300  0.39306400  0.92716000  1
  C  495  1  0.10774800  0.37690000  0.91085800  1
  C  496  1  0.10712200  0.37909900  0.88223800  1
  C  497  1  0.08896400  0.39783500  0.86998300  1
  C  498  1  0.07181100  0.41378300  0.88669500  1
  C  500  1  0.12469500  0.36250700  0.86646900  1
  C  501  1  0.12137500  0.33403100  0.86600200  1
  C  502  1  0.13880500  0.31762400  0.85039400  1
  C  503  1  0.16034900  0.32905300  0.83519100  1
  C  504  1  0.16358100  0.35762400  0.83581400  1
  C  505  1  0.14591700  0.37412500  0.85106600  1
  C  515  1  0.17903600  0.31044300  0.82025800  1
  C  518  1  0.05442700  0.42868200  0.93254000  1
  C  521  1  0.66819900  0.82227000  0.34248000  1
  C  522  1  0.64362500  0.83328900  0.33265500  1
  C  523  1  0.62737000  0.84989500  0.34920800  1
  C  524  1  0.63510800  0.85601000  0.37618700  1
  C  525  1  0.65974400  0.84497700  0.38641200  1
  C  526  1  0.67594400  0.82828000  0.36943300  1
  C  528  1  0.61796400  0.87298800  0.39220500  1
  C  529  1  0.59049100  0.86604200  0.39680600  1
  C  530  1  0.57336500  0.88324700  0.41189300  1
  C  531  1  0.58299100  0.90806200  0.42269700  1
  C  532  1  0.61053100  0.91493100  0.41805300  1
  C  533  1  0.62773000  0.89767300  0.40310800  1
  C  543  1  0.56347300  0.92619900  0.43716700  1
  C  546  1  0.68458200  0.80396200  0.32487800  1
  C  549  1  0.83324800  0.17917200  0.84246800  1
  C  550  1  0.85781100  0.16814000  0.83264100  1
  C  551  1  0.87406800  0.15153700  0.84919800  1
  C  552  1  0.86634100  0.14544100  0.87618400  1
  C  553  1  0.84171200  0.15648800  0.88641300  1
  C  554  1  0.82551000  0.17317900  0.86942900  1
  C  556  1  0.88348500  0.12846400  0.89220300  1
  C  557  1  0.91096200  0.13540200  0.89679000  1
  C  558  1  0.92808400  0.11820500  0.91188900  1
  C  559  1  0.91845400  0.09339500  0.92270500  1
  C  560  1  0.89091600  0.08652400  0.91805800  1
  C  561  1  0.87371700  0.10378100  0.90310800  1
  C  571  1  0.93797500  0.07525300  0.93716500  1
  C  574  1  0.81686900  0.19748200  0.82486700  1
  C  577  1  0.07235400  0.58992700  0.08613100  1
  C  578  1  0.09077400  0.60840100  0.07427900  1
  C  579  1  0.10775100  0.62456200  0.09058200  1
  C  580  1  0.10713000  0.62235300  0.11920100  1
  C  581  1  0.08897600  0.60361300  0.13145500  1
  C  582  1  0.07182300  0.58766900  0.11474200  1
  C  584  1  0.12470600  0.63894300  0.13497300  1
  C  585  1  0.12138400  0.66742100  0.13544500  1
  C  586  1  0.13882700  0.68382600  0.15103600  1
  C  587  1  0.16037000  0.67239700  0.16624000  1
  C  588  1  0.16359200  0.64382200  0.16562700  1
  C  589  1  0.14592300  0.62732400  0.15037800  1
  C  599  1  0.17905200  0.69100400  0.18118400  1
  C  602  1  0.05443500  0.57277600  0.06889600  1
  C  605  1  0.42908200  0.41152400  0.58612000  1
  C  606  1  0.41065900  0.39305200  0.57427100  1
  C  607  1  0.39368300  0.37689200  0.59057800  1
  C  608  1  0.39430800  0.37910100  0.61919600  1
  C  609  1  0.41246200  0.39784300  0.63144700  1
  C  610  1  0.42961400  0.41378800  0.61472900  1
  C  612  1  0.37673800  0.36251100  0.63497200  1
  C  613  1  0.38006100  0.33403300  0.63544300  1
  C  614  1  0.36263300  0.31762800  0.65105200  1
  C  615  1  0.34108900  0.32905700  0.66625600  1
  C  616  1  0.33785400  0.35762800  0.66563000  1
  C  617  1  0.35551600  0.37412900  0.65037200  1
  C  627  1  0.32240600  0.31044700  0.68119300  1
  C  630  1  0.44700400  0.42866800  0.56888200  1
  C  633  1  0.16588200  0.17433000  0.83796400  1
  C  634  1  0.14655200  0.15736200  0.82533600  1
  C  635  1  0.13080900  0.13918600  0.84066100  1
  C  636  1  0.13334100  0.13772700  0.86925800  1
  C  637  1  0.15261100  0.15491400  0.88226700  1
  C  638  1  0.16877000  0.17273900  0.86643600  1
  C  640  1  0.11563700  0.12014000  0.88412000  1
  C  641  1  0.08722900  0.12093100  0.87985700  1
  C  642  1  0.06959700  0.10430500  0.89496900  1
  C  643  1  0.07962000  0.08657800  0.91521100  1
  C  644  1  0.10807800  0.08538300  0.91910300  1
  C  645  1  0.12576400  0.10167400  0.90364800  1
  C  655  1  0.05975000  0.07100100  0.93196800  1
  C  658  1  0.18101700  0.19473500  0.82162800  1
  C  661  1  0.33555000  0.82714100  0.33796000  1
  C  662  1  0.35487300  0.84411200  0.32532500  1
  C  663  1  0.37062000  0.86228800  0.34064600  1
  C  664  1  0.36809200  0.86375000  0.36924600  1
  C  665  1  0.34883500  0.84655300  0.38225600  1
  C  666  1  0.33266900  0.82873200  0.36643200  1
  C  668  1  0.38579900  0.88134100  0.38410000  1
  C  669  1  0.41420600  0.88056100  0.37982400  1
  C  670  1  0.43183900  0.89718400  0.39493600  1
  C  671  1  0.42181800  0.91489600  0.41519500  1
  C  672  1  0.39336000  0.91608400  0.41909500  1
  C  673  1  0.37567400  0.89979900  0.40363800  1
  C  683  1  0.44169300  0.93044300  0.43197300  1
  C  686  1  0.32043000  0.80672500  0.32162200  1
  C  689  1  0.57326100  0.41943200  0.59402000  1
  C  690  1  0.58380700  0.39476700  0.58391700  1
  C  691  1  0.60046000  0.37822600  0.60013300  1
  C  692  1  0.60705300  0.38574400  0.62706000  1
  C  693  1  0.59642200  0.41042700  0.63759700  1
  C  694  1  0.57969600  0.42693200  0.62094400  1
  C  696  1  0.62420700  0.36839700  0.64265700  1
  C  697  1  0.61725500  0.34090000  0.64710900  1
  C  698  1  0.63468000  0.32357300  0.66170400  1
  C  699  1  0.65971800  0.33302000  0.67214200  1
  C  700  1  0.66659900  0.36057800  0.66763400  1
  C  701  1  0.64913000  0.37797400  0.65317600  1
  C  711  1  0.67802400  0.31333000  0.68615700  1
  C  714  1  0.55508000  0.43622100  0.57668700  1
  C  717  1  0.92817700  0.58201800  0.09400400  1
  C  718  1  0.91762500  0.60668300  0.08389900  1
  C  719  1  0.90097600  0.62322200  0.10011800  1
  C  720  1  0.89439800  0.61571200  0.12705000  1
  C  721  1  0.90503900  0.59103500  0.13758900  1
  C  722  1  0.92175700  0.57452600  0.12093100  1
  C  724  1  0.87724800  0.63306100  0.14265100  1
  C  725  1  0.88419800  0.66055800  0.14709300  1
  C  726  1  0.86678100  0.67788500  0.16170200  1
  C  727  1  0.84174700  0.66843600  0.17215000  1
  C  728  1  0.83485800  0.64088200  0.16763100  1
  C  729  1  0.85232300  0.62348600  0.15317000  1
  C  739  1  0.82343900  0.68813300  0.18615500  1
  C  742  1  0.94636100  0.56523500  0.07666700  1
  C  745  1  0.33556600  0.17433200  0.66349000  1
  C  746  1  0.35489900  0.15736700  0.67611700  1
  C  747  1  0.37064300  0.13919100  0.66079200  1
  C  748  1  0.36810700  0.13772800  0.63219400  1
  C  749  1  0.34883500  0.15491200  0.61918800  1
  C  750  1  0.33267500  0.17273700  0.63501700  1
  C  752  1  0.38581100  0.12014200  0.61733200  1
  C  753  1  0.41422000  0.12093600  0.62159200  1
  C  754  1  0.43185200  0.10430900  0.60648000  1
  C  755  1  0.42182800  0.08657900  0.58624200  1
  C  756  1  0.39336800  0.08538100  0.58235300  1
  C  757  1  0.37568400  0.10167200  0.59780800  1
  C  767  1  0.44169700  0.07100200  0.56948500  1
  C  770  1  0.32043200  0.19473600  0.67982400  1
  C  773  1  0.16589500  0.82714100  0.16348700  1
  C  774  1  0.14656800  0.84411000  0.17612100  1
  C  775  1  0.13082000  0.86228400  0.16080000  1
  C  776  1  0.13335400  0.86375200  0.13220200  1
  C  777  1  0.15261600  0.84656100  0.11919000  1
  C  778  1  0.16878200  0.82873800  0.13501400  1
  C  780  1  0.11564800  0.88134300  0.11734700  1
  C  781  1  0.08724000  0.88055700  0.12161900  1
  C  782  1  0.06960700  0.89718200  0.10650600  1
  C  783  1  0.07962800  0.91489800  0.08625300  1
  C  784  1  0.10808600  0.91609000  0.08235700  1
  C  785  1  0.12577300  0.89980700  0.09781500  1
  C  795  1  0.05975400  0.93044300  0.06947200  1
  C  798  1  0.18101400  0.80672300  0.17982200  1
  C  801  1  0.92820700  0.41941600  0.90743700  1
  C  802  1  0.91765600  0.39475300  0.91754200  1
  C  803  1  0.90100500  0.37821400  0.90132400  1
  C  804  1  0.89441800  0.38572600  0.87439500  1
  C  805  1  0.90505500  0.41040700  0.86385500  1
  C  806  1  0.92178100  0.42691000  0.88051000  1
  C  808  1  0.87726400  0.36837900  0.85879800  1
  C  809  1  0.88421200  0.34088200  0.85434900  1
  C  810  1  0.86678700  0.32355500  0.83975500  1
  C  811  1  0.84174900  0.33300400  0.82931500  1
  C  812  1  0.83487200  0.36056400  0.83382000  1
  C  813  1  0.85234100  0.37796000  0.84827700  1
  C  823  1  0.82344300  0.31331400  0.81530200  1
  C  826  1  0.94638500  0.43620500  0.92477200  1
  C  829  1  0.57328200  0.58200400  0.40743500  1
  C  830  1  0.58382900  0.60667100  0.41753600  1
  C  831  1  0.60047800  0.62321000  0.40131700  1
  C  832  1  0.60706300  0.61569600  0.37438900  1
  C  833  1  0.59642800  0.59101300  0.36385100  1
  C  834  1  0.57971000  0.57450600  0.38051000  1
  C  836  1  0.62421300  0.63304300  0.35878700  1
  C  837  1  0.61726100  0.66054000  0.35434100  1
  C  838  1  0.63467600  0.67786700  0.33973300  1
  C  839  1  0.65971400  0.66842000  0.32928800  1
  C  840  1  0.66666667  0.64086800  0.33381200  1
  C  841  1  0.64914000  0.62347200  0.34827200  1
  C  851  1  0.67801700  0.68811800  0.31528300  1
  C  854  1  0.55509600  0.56521900  0.42477000  1
  C  857  1  0.01727100  0.02526200  0.26405900  1
  C  858  1  0.01764100  0.04429000  0.28572500  1
  C  859  1  0.98035300  0.01863300  0.30983600  1
  C  860  1  0.98028000  0.99848000  0.28919900  1
  C  861  1  0.96227700  0.97606300  0.29216600  1
  C  862  1  0.94441600  0.97394500  0.31449700  1
  C  863  1  0.94436500  0.99454300  0.33422600  1
  C  864  1  0.96233600  0.01650200  0.33207900  1
  C  865  1  0.03610200  0.06626700  0.28524600  1
  C  866  1  0.05415900  0.06966000  0.26351300  1
  C  867  1  0.05367200  0.05156000  0.24147000  1
  C  868  1  0.03526000  0.02959900  0.24186400  1
  C  869  1  0.01727100  0.97618500  0.26527900  1
  C  870  1  0.01764000  0.95715600  0.24361400  1
  C  871  1  0.98034900  0.98281200  0.21950500  1
  C  872  1  0.98028000  0.00296600  0.24014000  1
  C  873  1  0.96233400  0.98494600  0.19726100  1
  C  874  1  0.94436700  0.00690800  0.19511100  1
  C  875  1  0.94441400  0.02750000  0.21484400  1
  C  876  1  0.96227500  0.02538400  0.23717500  1
  C  877  1  0.03525900  0.97184600  0.28747600  1
  C  878  1  0.05367800  0.94989200  0.28786300  1
  C  879  1  0.05416900  0.93179500  0.26581900  1
  C  880  1  0.03610200  0.93518000  0.24409300  1
  C  893  1  0.99872200  0.00072300  0.26466800  1
  C  894  1  0.99906700  0.95929000  0.22007400  1
  C  897  1  0.99906900  0.04215600  0.30926600  1
  C  908  1  0.48417400  0.97618100  0.76406100  1
  C  909  1  0.48380600  0.95715400  0.78572700  1
  C  910  1  0.52109400  0.98281400  0.80983700  1
  C  911  1  0.52116500  0.00296500  0.78919900  1
  C  912  1  0.53916600  0.02538400  0.79216500  1
  C  913  1  0.55703100  0.02750000  0.81449500  1
  C  914  1  0.55708400  0.00690300  0.83422400  1
  C  915  1  0.53911100  0.98494600  0.83208000  1
  C  916  1  0.46534600  0.93517600  0.78524800  1
  C  917  1  0.44728800  0.93178300  0.76351700  1
  C  918  1  0.44777400  0.94988300  0.74147300  1
  C  919  1  0.46618500  0.97184400  0.74186500  1
  C  920  1  0.48417000  0.02525900  0.76528300  1
  C  921  1  0.48380000  0.04429000  0.74361900  1
  C  922  1  0.52109000  0.01863600  0.71950700  1
  C  923  1  0.52116300  0.99848200  0.74014100  1
  C  924  1  0.53910500  0.01650600  0.69726200  1
  C  925  1  0.55707600  0.99454500  0.69511200  1
  C  926  1  0.55703100  0.97395300  0.71484300  1
  C  927  1  0.53916600  0.97606300  0.73717100  1
  C  928  1  0.46617900  0.02959200  0.78747700  1
  C  929  1  0.44776800  0.05155300  0.78787300  1
  C  930  1  0.44728200  0.06965600  0.76583400  1
  C  931  1  0.46533800  0.06626600  0.74410100  1
  C  944  1  0.50272100  0.00072100  0.76467200  1
  C  945  1  0.50237200  0.04215800  0.72008000  1
  C  948  1  0.50237600  0.95929000  0.80926900  1
  C  959  1  0.22619500  0.76690000  0.51325600  1
  C  960  1  0.20632200  0.76704600  0.53415600  1
  C  961  1  0.23113100  0.72968600  0.55901600  1
  C  962  1  0.25211900  0.72990100  0.53923400  1
  C  963  1  0.27470400  0.71232000  0.54323000  1
  C  964  1  0.27622100  0.69460100  0.56572000  1
  C  965  1  0.25469500  0.69405900  0.58442800  1
  C  966  1  0.23252000  0.71161200  0.58127300  1
  C  967  1  0.18417600  0.78525700  0.53281400  1
  C  968  1  0.18129700  0.80309700  0.51083400  1
  C  969  1  0.20014600  0.80267300  0.48942200  1
  C  970  1  0.22243100  0.78470400  0.49081000  1
  C  971  1  0.27524700  0.76690400  0.51608600  1
  C  972  1  0.29512000  0.76705200  0.49518600  1
  C  973  1  0.27031700  0.72968600  0.47032800  1
  C  974  1  0.24932700  0.72989900  0.49011000  1
  C  975  1  0.26893200  0.71160800  0.44807600  1
  C  976  1  0.24675500  0.69405500  0.44491700  1
  C  977  1  0.22522500  0.69460100  0.46362200  1
  C  978  1  0.22674400  0.71231800  0.48611400  1
  C  979  1  0.27900700  0.78471000  0.53853000  1
  C  980  1  0.30128600  0.80268900  0.53991400  1
  C  981  1  0.32015000  0.80309300  0.51851600  1
  C  982  1  0.31726500  0.78526300  0.49652800  1
  C  995  1  0.25072200  0.74837900  0.51467100  1
  C  996  1  0.29388100  0.74830000  0.47172500  1
  C  999  1  0.20756500  0.74830000  0.55762100  1
  C  1010  1  0.27525100  0.23454400  0.01326050  1
  C  1011  1  0.29512000  0.23439800  0.03416350  1
  C  1012  1  0.27030700  0.27175600  0.05902050  1
  C  1013  1  0.24932300  0.27154500  0.03923250  1
  C  1014  1  0.22673700  0.28912600  0.04322450  1
  C  1015  1  0.22521300  0.30683900  0.06571850  1
  C  1016  1  0.24673800  0.30738300  0.08442850  1
  C  1017  1  0.26891600  0.28983500  0.08127350  1
  C  1018  1  0.31726700  0.21619000  0.03282350  1
  C  1019  1  0.32016000  0.19836300  0.01083450  1
  C  1020  1  0.30130400  0.19877400  0.98942800  1
  C  1021  1  0.27901700  0.21674000  0.99081500  1
  C  1022  1  0.22619700  0.23454200  0.01608250  1
  C  1023  1  0.20632600  0.23439400  0.99518200  1
  C  1024  1  0.23113500  0.27175600  0.97032400  1
  C  1025  1  0.25212100  0.27154300  0.99010800  1
  C  1026  1  0.23252600  0.28982900  0.94806800  1
  C  1027  1  0.25470800  0.30737100  0.94490400  1
  C  1028  1  0.27622900  0.30683900  0.96362000  1
  C  1029  1  0.27470600  0.28912400  0.98611400  1
  C  1030  1  0.22243300  0.21673800  0.03852850  1
  C  1031  1  0.20014700  0.19876900  0.03991750  1
  C  1032  1  0.18129700  0.19834700  0.01850550  1
  C  1033  1  0.18418000  0.21618400  0.99652400  1
  C  1046  1  0.25072200  0.25306500  0.01467150  1
  C  1047  1  0.20756900  0.25314400  0.97171900  1
  C  1050  1  0.29387300  0.25314600  0.05762750  1
  C  1061  1  0.77530200  0.23368700  0.01622750  1
  C  1062  1  0.79518500  0.23348200  0.99533600  1
  C  1063  1  0.76995600  0.27023600  0.96993700  1
  C  1064  1  0.74933400  0.27059700  0.99009400  1
  C  1065  1  0.72712800  0.28874400  0.98650000  1
  C  1066  1  0.72563500  0.30646100  0.96401200  1
  C  1067  1  0.74662100  0.30615300  0.94469900  1
  C  1068  1  0.76839600  0.28803600  0.94746900  1
  C  1069  1  0.81781700  0.21592000  0.99720800  1
  C  1070  1  0.82130300  0.19896700  0.01980450  1
  C  1071  1  0.80236400  0.19936100  0.04112550  1
  C  1072  1  0.77938300  0.21638100  0.03902150  1
  C  1073  1  0.72614300  0.23369500  0.01311250  1
  C  1074  1  0.70626200  0.23349000  0.03400450  1
  C  1075  1  0.73150300  0.27023200  0.05941250  1
  C  1076  1  0.75212300  0.27059300  0.03925550  1
  C  1077  1  0.73306600  0.28802800  0.08188250  1
  C  1078  1  0.75484400  0.30614000  0.08465350  1
  C  1079  1  0.77583000  0.30644700  0.06533950  1
  C  1080  1  0.77433700  0.28873000  0.04285150  1
  C  1081  1  0.72205800  0.21639300  0.99031500  1
  C  1082  1  0.69907400  0.19937700  0.98821200  1
  C  1083  1  0.68012500  0.19900100  0.00952446  1
  C  1084  1  0.68362500  0.21593600  0.03213050  1
  C  1097  1  0.75072600  0.25213100  0.01467150  1
  C  1098  1  0.70797700  0.25155600  0.05798150  1
  C  1101  1  0.79347500  0.25155400  0.97136400  1
  C  1112  1  0.72614300  0.76776500  0.51622600  1
  C  1113  1  0.70626600  0.76797000  0.49533200  1
  C  1114  1  0.73150500  0.73122700  0.46992600  1
  C  1115  1  0.75212300  0.73086300  0.49008800  1
  C  1116  1  0.77433300  0.71272000  0.48649600  1
  C  1117  1  0.77582800  0.69500500  0.46400700  1
  C  1118  1  0.75484400  0.69531400  0.44469100  1
  C  1119  1  0.73306800  0.71343300  0.44745700  1
  C  1120  1  0.68363100  0.78553100  0.49720200  1
  C  1121  1  0.68012300  0.80245600  0.51981600  1
  C  1122  1  0.69906800  0.80207400  0.54113100  1
  C  1123  1  0.72206000  0.78506800  0.53902300  1
  C  1124  1  0.77530400  0.76776900  0.51311400  1
  C  1125  1  0.79518500  0.76797200  0.53400400  1
  C  1126  1  0.76995200  0.73122100  0.55940600  1
  C  1127  1  0.74932900  0.73086100  0.53924800  1
  C  1128  1  0.76839200  0.71342100  0.58187400  1
  C  1129  1  0.74660900  0.69531400  0.58464700  1
  C  1130  1  0.72563100  0.69499500  0.56532600  1
  C  1131  1  0.72712100  0.71271600  0.54284000  1
  C  1132  1  0.77938900  0.78507200  0.49031900  1
  C  1133  1  0.80237200  0.80208600  0.48821400  1
  C  1134  1  0.82131100  0.80247800  0.50953400  1
  C  1135  1  0.81781700  0.78553700  0.53213800  1
  C  1148  1  0.75072400  0.74932700  0.51466900  1
  C  1149  1  0.79347700  0.74989600  0.55797400  1
  C  1152  1  0.70798100  0.74990600  0.47135600  1
  C  1163  1  0.51904500  0.52526200  0.76240200  1
  C  1164  1  0.51889700  0.54598600  0.78246200  1
  C  1165  1  0.48230200  0.52140800  0.80869000  1
  C  1166  1  0.48215400  0.50006300  0.78929400  1
  C  1167  1  0.46478400  0.47747400  0.79411800  1
  C  1168  1  0.44807200  0.47599800  0.81736800  1
  C  1169  1  0.44797300  0.49777300  0.83578500  1
  C  1170  1  0.46495600  0.52021000  0.83153400  1
  C  1171  1  0.53629300  0.56866900  0.77984100  1
  C  1172  1  0.55338400  0.57140200  0.75725100  1
  C  1173  1  0.55326900  0.55164600  0.73668200  1
  C  1174  1  0.53642700  0.52862200  0.73955100  1
  C  1175  1  0.51904100  0.47618600  0.76694000  1
  C  1176  1  0.51889100  0.45546100  0.74688000  1
  C  1177  1  0.48230200  0.48004200  0.72065000  1
  C  1178  1  0.48215800  0.50138900  0.74004400  1
  C  1179  1  0.46496100  0.48124600  0.69780300  1
  C  1180  1  0.44797900  0.50368300  0.69355300  1
  C  1181  1  0.44807600  0.52545900  0.71196800  1
  C  1182  1  0.46479400  0.52398500  0.73521800  1
  C  1183  1  0.53641900  0.47282200  0.78979400  1
  C  1184  1  0.55325800  0.44979600  0.79266500  1
  C  1185  1  0.55337400  0.43004100  0.77209300  1
  C  1186  1  0.53628500  0.43277500  0.74950300  1
  C  1199  1  0.50060100  0.50072500  0.76467000  1
  C  1200  1  0.50058700  0.45630100  0.72304600  1
  C  1203  1  0.50059100  0.54514700  0.80629600  1
  C  1214  1  0.98241000  0.47618600  0.26240100  1
  C  1215  1  0.98255600  0.45546500  0.28246400  1
  C  1216  1  0.01915500  0.48004000  0.30868800  1
  C  1217  1  0.01929500  0.50138900  0.28929800  1
  C  1218  1  0.03665900  0.52398300  0.29412400  1
  C  1219  1  0.05338400  0.52545300  0.31736700  1
  C  1220  1  0.05348100  0.50367700  0.33578400  1
  C  1221  1  0.03649600  0.48124200  0.33153500  1
  C  1222  1  0.96515600  0.43278400  0.27984600  1
  C  1223  1  0.94806600  0.43004900  0.25725800  1
  C  1224  1  0.94818600  0.44979800  0.23668200  1
  C  1225  1  0.96503400  0.47282000  0.23954500  1
  C  1226  1  0.98240800  0.52526200  0.26693800  1
  C  1227  1  0.98255000  0.54598000  0.24687000  1
  C  1228  1  0.01916000  0.52140800  0.22065700  1
  C  1229  1  0.01930100  0.50006100  0.24004800  1
  C  1230  1  0.03651500  0.52021200  0.19781900  1
  C  1231  1  0.05350100  0.49777700  0.19357200  1
  C  1232  1  0.05339600  0.47600000  0.21198500  1
  C  1233  1  0.03667000  0.47747000  0.23522800  1
  C  1234  1  0.96502800  0.52862600  0.28979000  1
  C  1235  1  0.94817600  0.55164400  0.29264900  1
  C  1236  1  0.94806200  0.57139800  0.27207700  1
  C  1237  1  0.96515400  0.56866300  0.24949000  1
  C  1250  1  0.00085100  0.50072500  0.26467100  1
  C  1251  1  0.00086300  0.54514100  0.22304000  1
  C  1254  1  0.00086600  0.45630100  0.30629500  1
  C  1265  1  0.83326400  0.82225800  0.42292300  1
  C  1266  1  0.85783100  0.83328600  0.43275000  1
  C  1267  1  0.87408600  0.84989300  0.41619500  1
  C  1268  1  0.86635500  0.85599400  0.38921200  1
  C  1269  1  0.84172300  0.84495300  0.37898400  1
  C  1270  1  0.82552400  0.82825700  0.39596600  1
  C  1272  1  0.88349700  0.87297600  0.37319400  1
  C  1273  1  0.91097400  0.86603600  0.36860100  1
  C  1274  1  0.92809800  0.88324100  0.35351400  1
  C  1275  1  0.91846600  0.90805400  0.34270500  1
  C  1276  1  0.89092400  0.91491700  0.34734100  1
  C  1277  1  0.87372700  0.89765500  0.36228500  1
  C  1287  1  0.93798400  0.92619300  0.32823400  1
  C  1290  1  0.81687900  0.80395400  0.44052700  1
  C  1293  1  0.66820300  0.17917200  0.92292200  1
  C  1294  1  0.64363500  0.16814500  0.93274900  1
  C  1295  1  0.62737800  0.15154000  0.91619300  1
  C  1296  1  0.63510800  0.14543800  0.88921000  1
  C  1297  1  0.65974000  0.15648100  0.87898100  1
  C  1298  1  0.67594200  0.17317200  0.89596500  1
  C  1300  1  0.61796400  0.12846100  0.87319000  1
  C  1301  1  0.59048700  0.13540100  0.86860400  1
  C  1302  1  0.57336300  0.11820400  0.85350400  1
  C  1303  1  0.58299300  0.09339300  0.84269000  1
  C  1304  1  0.61053100  0.08652000  0.84734000  1
  C  1305  1  0.62772800  0.10377600  0.86228700  1
  C  1315  1  0.56346900  0.07525200  0.82823000  1
  C  1318  1  0.68458000  0.19748500  0.94052300  1
  C  1321  1  0.42908800  0.58993700  0.67928200  1
  C  1322  1  0.41067100  0.60841500  0.69113100  1
  C  1323  1  0.39369300  0.62457500  0.67482500  1
  C  1324  1  0.39431200  0.62235900  0.64620700  1
  C  1325  1  0.41246600  0.60361700  0.63395600  1
  C  1326  1  0.42961600  0.58767100  0.65067200  1
  C  1328  1  0.37674000  0.63894900  0.63043300  1
  C  1329  1  0.38006100  0.66742700  0.62996000  1
  C  1330  1  0.36261700  0.68383200  0.61436900  1
  C  1331  1  0.34107700  0.67240100  0.59916200  1
  C  1332  1  0.33785600  0.64382800  0.59977500  1
  C  1333  1  0.35552500  0.62733000  0.61502500  1
  C  1343  1  0.32239500  0.69100800  0.58421700  1
  C  1346  1  0.44700800  0.57279000  0.69651700  1
  C  1349  1  0.07234600  0.41153000  0.17925200  1
  C  1350  1  0.09077300  0.39306400  0.19110500  1
  C  1351  1  0.10774800  0.37690000  0.17480300  1
  C  1352  1  0.10712200  0.37909900  0.14618300  1
  C  1353  1  0.08896400  0.39783500  0.13392800  1
  C  1354  1  0.07181100  0.41378300  0.15064000  1
  C  1356  1  0.12469500  0.36250700  0.13041400  1
  C  1357  1  0.12137500  0.33403100  0.12994700  1
  C  1358  1  0.13880500  0.31762400  0.11433900  1
  C  1359  1  0.16034900  0.32905300  0.09913650  1
  C  1360  1  0.16358100  0.35762400  0.09975950  1
  C  1361  1  0.14591700  0.37412500  0.11501100  1
  C  1371  1  0.17903600  0.31044300  0.08420350  1
  C  1374  1  0.05442700  0.42868200  0.19648500  1
  C  1377  1  0.66819900  0.82227000  0.60642500  1
  C  1378  1  0.64362500  0.83328900  0.59660000  1
  C  1379  1  0.62737000  0.84989500  0.61315300  1
  C  1380  1  0.63510800  0.85601000  0.64013200  1
  C  1381  1  0.65974400  0.84497700  0.65035700  1
  C  1382  1  0.67594400  0.82828000  0.63337800  1
  C  1384  1  0.61796400  0.87298800  0.65615000  1
  C  1385  1  0.59049100  0.86604200  0.66075100  1
  C  1386  1  0.57336500  0.88324700  0.67583800  1
  C  1387  1  0.58299100  0.90806200  0.68664200  1
  C  1388  1  0.61053100  0.91493100  0.68199800  1
  C  1389  1  0.62773000  0.89767300  0.66705300  1
  C  1399  1  0.56347300  0.92619900  0.70111200  1
  C  1402  1  0.68458200  0.80396200  0.58882300  1
  C  1405  1  0.83324800  0.17917200  0.10641300  1
  C  1406  1  0.85781100  0.16814000  0.09658650  1
  C  1407  1  0.87406800  0.15153700  0.11314300  1
  C  1408  1  0.86634100  0.14544100  0.14012900  1
  C  1409  1  0.84171200  0.15648800  0.15035800  1
  C  1410  1  0.82551000  0.17317900  0.13337400  1
  C  1412  1  0.88348500  0.12846400  0.15614800  1
  C  1413  1  0.91096200  0.13540200  0.16073500  1
  C  1414  1  0.92808400  0.11820500  0.17583400  1
  C  1415  1  0.91845400  0.09339500  0.18665000  1
  C  1416  1  0.89091600  0.08652400  0.18200300  1
  C  1417  1  0.87371700  0.10378100  0.16705300  1
  C  1427  1  0.93797500  0.07525300  0.20111000  1
  C  1430  1  0.81686900  0.19748200  0.08881250  1
  C  1433  1  0.07235400  0.58992700  0.35007600  1
  C  1434  1  0.09077400  0.60840100  0.33822400  1
  C  1435  1  0.10775100  0.62456200  0.35452700  1
  C  1436  1  0.10713000  0.62235300  0.38314600  1
  C  1437  1  0.08897600  0.60361300  0.39540000  1
  C  1438  1  0.07182300  0.58766900  0.37868700  1
  C  1440  1  0.12470600  0.63894300  0.39891800  1
  C  1441  1  0.12138400  0.66742100  0.39939000  1
  C  1442  1  0.13882700  0.68382600  0.41498100  1
  C  1443  1  0.16037000  0.67239700  0.43018500  1
  C  1444  1  0.16359200  0.64382200  0.42957200  1
  C  1445  1  0.14592300  0.62732400  0.41432300  1
  C  1455  1  0.17905200  0.69100400  0.44512900  1
  C  1458  1  0.05443500  0.57277600  0.33284100  1
  C  1461  1  0.42908200  0.41152400  0.85006500  1
  C  1462  1  0.41065900  0.39305200  0.83821600  1
  C  1463  1  0.39368300  0.37689200  0.85452300  1
  C  1464  1  0.39430800  0.37910100  0.88314100  1
  C  1465  1  0.41246200  0.39784300  0.89539200  1
  C  1466  1  0.42961400  0.41378800  0.87867400  1
  C  1468  1  0.37673800  0.36251100  0.89891700  1
  C  1469  1  0.38006100  0.33403300  0.89938800  1
  C  1470  1  0.36263300  0.31762800  0.91499700  1
  C  1471  1  0.34108900  0.32905700  0.93020100  1
  C  1472  1  0.33785400  0.35762800  0.92957500  1
  C  1473  1  0.35551600  0.37412900  0.91431700  1
  C  1483  1  0.32240600  0.31044700  0.94513800  1
  C  1486  1  0.44700400  0.42866800  0.83282700  1
  C  1489  1  0.16588200  0.17433000  0.10190900  1
  C  1490  1  0.14655200  0.15736200  0.08928150  1
  C  1491  1  0.13080900  0.13918600  0.10460600  1
  C  1492  1  0.13334100  0.13772700  0.13320300  1
  C  1493  1  0.15261100  0.15491400  0.14621200  1
  C  1494  1  0.16877000  0.17273900  0.13038100  1
  C  1496  1  0.11563700  0.12014000  0.14806500  1
  C  1497  1  0.08722900  0.12093100  0.14380200  1
  C  1498  1  0.06959700  0.10430500  0.15891400  1
  C  1499  1  0.07962000  0.08657800  0.17915600  1
  C  1500  1  0.10807800  0.08538300  0.18304800  1
  C  1501  1  0.12576400  0.10167400  0.16759300  1
  C  1511  1  0.05975000  0.07100100  0.19591300  1
  C  1514  1  0.18101700  0.19473500  0.08557350  1
  C  1517  1  0.33555000  0.82714100  0.60190500  1
  C  1518  1  0.35487300  0.84411200  0.58927000  1
  C  1519  1  0.37062000  0.86228800  0.60459100  1
  C  1520  1  0.36809200  0.86375000  0.63319100  1
  C  1521  1  0.34883500  0.84655300  0.64620100  1
  C  1522  1  0.33266900  0.82873200  0.63037700  1
  C  1524  1  0.38579900  0.88134100  0.64804500  1
  C  1525  1  0.41420600  0.88056100  0.64376900  1
  C  1526  1  0.43183900  0.89718400  0.65888100  1
  C  1527  1  0.42181800  0.91489600  0.67914000  1
  C  1528  1  0.39336000  0.91608400  0.68304000  1
  C  1529  1  0.37567400  0.89979900  0.66758300  1
  C  1539  1  0.44169300  0.93044300  0.69591800  1
  C  1542  1  0.32043000  0.80672500  0.58556700  1
  C  1545  1  0.57326100  0.41943200  0.85796500  1
  C  1546  1  0.58380700  0.39476700  0.84786200  1
  C  1547  1  0.60046000  0.37822600  0.86407800  1
  C  1548  1  0.60705300  0.38574400  0.89100500  1
  C  1549  1  0.59642200  0.41042700  0.90154200  1
  C  1550  1  0.57969600  0.42693200  0.88488900  1
  C  1552  1  0.62420700  0.36839700  0.90660200  1
  C  1553  1  0.61725500  0.34090000  0.91105400  1
  C  1554  1  0.63468000  0.32357300  0.92564900  1
  C  1555  1  0.65971800  0.33302000  0.93608700  1
  C  1556  1  0.66659900  0.36057800  0.93157900  1
  C  1557  1  0.64913000  0.37797400  0.91712100  1
  C  1567  1  0.67802400  0.31333000  0.95010200  1
  C  1570  1  0.55508000  0.43622100  0.84063200  1
  C  1573  1  0.92817700  0.58201800  0.35794900  1
  C  1574  1  0.91762500  0.60668300  0.34784400  1
  C  1575  1  0.90097600  0.62322200  0.36406300  1
  C  1576  1  0.89439800  0.61571200  0.39099500  1
  C  1577  1  0.90503900  0.59103500  0.40153400  1
  C  1578  1  0.92175700  0.57452600  0.38487600  1
  C  1580  1  0.87724800  0.63306100  0.40659600  1
  C  1581  1  0.88419800  0.66055800  0.41103800  1
  C  1582  1  0.86678100  0.67788500  0.42564700  1
  C  1583  1  0.84174700  0.66843600  0.43609500  1
  C  1584  1  0.83485800  0.64088200  0.43157600  1
  C  1585  1  0.85232300  0.62348600  0.41711500  1
  C  1595  1  0.82343900  0.68813300  0.45010000  1
  C  1598  1  0.94636100  0.56523500  0.34061200  1
  C  1601  1  0.33556600  0.17433200  0.92743500  1
  C  1602  1  0.35489900  0.15736700  0.94006200  1
  C  1603  1  0.37064300  0.13919100  0.92473700  1
  C  1604  1  0.36810700  0.13772800  0.89613900  1
  C  1605  1  0.34883500  0.15491200  0.88313300  1
  C  1606  1  0.33267500  0.17273700  0.89896200  1
  C  1608  1  0.38581100  0.12014200  0.88127700  1
  C  1609  1  0.41422000  0.12093600  0.88553700  1
  C  1610  1  0.43185200  0.10430900  0.87042500  1
  C  1611  1  0.42182800  0.08657900  0.85018700  1
  C  1612  1  0.39336800  0.08538100  0.84629800  1
  C  1613  1  0.37568400  0.10167200  0.86175300  1
  C  1623  1  0.44169700  0.07100200  0.83343000  1
  C  1626  1  0.32043200  0.19473600  0.94376900  1
  C  1629  1  0.16589500  0.82714100  0.42743200  1
  C  1630  1  0.14656800  0.84411000  0.44006600  1
  C  1631  1  0.13082000  0.86228400  0.42474500  1
  C  1632  1  0.13335400  0.86375200  0.39614700  1
  C  1633  1  0.15261600  0.84656100  0.38313500  1
  C  1634  1  0.16878200  0.82873800  0.39895900  1
  C  1636  1  0.11564800  0.88134300  0.38129200  1
  C  1637  1  0.08724000  0.88055700  0.38556400  1
  C  1638  1  0.06960700  0.89718200  0.37045100  1
  C  1639  1  0.07962800  0.91489800  0.35019800  1
  C  1640  1  0.10808600  0.91609000  0.34630200  1
  C  1641  1  0.12577300  0.89980700  0.36176000  1
  C  1651  1  0.05975400  0.93044300  0.33341700  1
  C  1654  1  0.18101400  0.80672300  0.44376700  1
  C  1657  1  0.92820700  0.41941600  0.17138200  1
  C  1658  1  0.91765600  0.39475300  0.18148700  1
  C  1659  1  0.90100500  0.37821400  0.16526900  1
  C  1660  1  0.89441800  0.38572600  0.13834000  1
  C  1661  1  0.90505500  0.41040700  0.12780000  1
  C  1662  1  0.92178100  0.42691000  0.14445500  1
  C  1664  1  0.87726400  0.36837900  0.12274300  1
  C  1665  1  0.88421200  0.34088200  0.11829400  1
  C  1666  1  0.86678700  0.32355500  0.10370000  1
  C  1667  1  0.84174900  0.33300400  0.09326050  1
  C  1668  1  0.83487200  0.36056400  0.09776550  1
  C  1669  1  0.85234100  0.37796000  0.11222200  1
  C  1679  1  0.82344300  0.31331400  0.07924750  1
  C  1682  1  0.94638500  0.43620500  0.18871700  1
  C  1685  1  0.57328200  0.58200400  0.67138000  1
  C  1686  1  0.58382900  0.60667100  0.68148100  1
  C  1687  1  0.60047800  0.62321000  0.66526200  1
  C  1688  1  0.60706300  0.61569600  0.63833400  1
  C  1689  1  0.59642800  0.59101300  0.62779600  1
  C  1690  1  0.57971000  0.57450600  0.64445500  1
  C  1692  1  0.62421300  0.63304300  0.62273200  1
  C  1693  1  0.61726100  0.66054000  0.61828600  1
  C  1694  1  0.63467600  0.67786700  0.60367800  1
  C  1695  1  0.65971400  0.66842000  0.59323300  1
  C  1696  1  0.66666667  0.64086800  0.59775700  1
  C  1697  1  0.64914000  0.62347200  0.61221700  1
  C  1707  1  0.67801700  0.68811800  0.57922800  1
  C  1710  1  0.55509600  0.56521900  0.68871500  1
  N  44  1  0.92617300  0.04935300  0.94726200  1
  N  46  1  0.07164300  0.94483400  0.04572600  1
  N  48  1  0.92617700  0.95209200  0.05419200  1
  N  50  1  0.07163800  0.05661600  0.95571900  1
  N  95  1  0.57527400  0.95210300  0.44726000  1
  N  97  1  0.42980700  0.05661100  0.54573800  1
  N  99  1  0.57527200  0.04935200  0.55418600  1
  N  101  1  0.42980500  0.94482800  0.45572400  1
  N  146  1  0.20266100  0.67762400  0.19448400  1
  N  148  1  0.30627400  0.81983100  0.29843100  1
  N  150  1  0.29878800  0.67762800  0.30696900  1
  N  152  1  0.19516300  0.81982500  0.20302000  1
  N  197  1  0.29879100  0.32382100  0.69448800  1
  N  199  1  0.19515800  0.18162300  0.79843100  1
  N  201  1  0.20264800  0.32381900  0.80695900  1
  N  203  1  0.30629500  0.18162600  0.70302300  1
  N  248  1  0.79737400  0.32495800  0.80547100  1
  N  250  1  0.69364300  0.18290600  0.70139300  1
  N  252  1  0.70409300  0.32497200  0.69598800  1
  N  254  1  0.80779900  0.18289600  0.80005800  1
  N  299  1  0.70409100  0.67648000  0.30545400  1
  N  301  1  0.80781400  0.81854600  0.20138800  1
  N  303  1  0.79737000  0.67649300  0.19598700  1
  N  305  1  0.69363500  0.81854400  0.30006200  1
  N  350  1  0.43191700  0.54830200  0.44164600  1
  N  352  1  0.56966000  0.44499200  0.55176600  1
  N  354  1  0.43191200  0.45315600  0.55980200  1
  N  356  1  0.56967400  0.55644600  0.44969200  1
  N  401  1  0.06953700  0.45314600  0.94165000  1
  N  403  1  0.93177900  0.55645200  0.05175200  1
  N  405  1  0.06953500  0.54830000  0.05980600  1
  N  407  1  0.93179700  0.44498800  0.94968400  1
  N  428  1  0.83422200  0.84988300  0.08771800  1
  N  456  1  0.66723800  0.15155300  0.58771600  1
  N  484  1  0.41363900  0.60166600  0.34133900  1
  N  512  1  0.08779000  0.39977800  0.84131200  1
  N  540  1  0.66725000  0.84991700  0.41373100  1
  N  568  1  0.83421400  0.15156600  0.91373500  1
  N  596  1  0.08780300  0.60166800  0.16012600  1
  N  624  1  0.41363700  0.39979400  0.66011800  1
  N  652  1  0.15448600  0.15526900  0.91097200  1
  N  680  1  0.34697300  0.84619300  0.41096300  1
  N  708  1  0.60180800  0.41769600  0.66489500  1
  N  736  1  0.89966500  0.58377300  0.16489000  1
  N  764  1  0.34695700  0.15526400  0.59048300  1
  N  792  1  0.15448400  0.84620600  0.09048400  1
  N  820  1  0.89967300  0.41767200  0.83655700  1
  N  848  1  0.60181000  0.58374600  0.33655300  1
  N  900  1  0.92617300  0.04935300  0.21120700  1
  N  902  1  0.07164300  0.94483400  0.30967100  1
  N  904  1  0.92617700  0.95209200  0.31813700  1
  N  906  1  0.07163800  0.05661600  0.21966400  1
  N  951  1  0.57527400  0.95210300  0.71120500  1
  N  953  1  0.42980700  0.05661100  0.80968300  1
  N  955  1  0.57527200  0.04935200  0.81813100  1
  N  957  1  0.42980500  0.94482800  0.71966900  1
  N  1002  1  0.20266100  0.67762400  0.45842900  1
  N  1004  1  0.30627400  0.81983100  0.56237600  1
  N  1006  1  0.29878800  0.67762800  0.57091400  1
  N  1008  1  0.19516300  0.81982500  0.46696500  1
  N  1053  1  0.29879100  0.32382100  0.95843300  1
  N  1055  1  0.19515800  0.18162300  0.06237650  1
  N  1057  1  0.20264800  0.32381900  0.07090450  1
  N  1059  1  0.30629500  0.18162600  0.96696800  1
  N  1104  1  0.79737400  0.32495800  0.06941650  1
  N  1106  1  0.69364300  0.18290600  0.96533800  1
  N  1108  1  0.70409300  0.32497200  0.95993300  1
  N  1110  1  0.80779900  0.18289600  0.06400350  1
  N  1155  1  0.70409100  0.67648000  0.56939900  1
  N  1157  1  0.80781400  0.81854600  0.46533300  1
  N  1159  1  0.79737000  0.67649300  0.45993200  1
  N  1161  1  0.69363500  0.81854400  0.56400700  1
  N  1206  1  0.43191700  0.54830200  0.70559100  1
  N  1208  1  0.56966000  0.44499200  0.81571100  1
  N  1210  1  0.43191200  0.45315600  0.82374700  1
  N  1212  1  0.56967400  0.55644600  0.71363700  1
  N  1257  1  0.06953700  0.45314600  0.20559500  1
  N  1259  1  0.93177900  0.55645200  0.31569700  1
  N  1261  1  0.06953500  0.54830000  0.32375100  1
  N  1263  1  0.93179700  0.44498800  0.21362900  1
  N  1284  1  0.83422200  0.84988300  0.35166300  1
  N  1312  1  0.66723800  0.15155300  0.85166100  1
  N  1340  1  0.41363900  0.60166600  0.60528400  1
  N  1368  1  0.08779000  0.39977800  0.10525700  1
  N  1396  1  0.66725000  0.84991700  0.67767600  1
  N  1424  1  0.83421400  0.15156600  0.17768000  1
  N  1452  1  0.08780300  0.60166800  0.42407100  1
  N  1480  1  0.41363700  0.39979400  0.92406300  1
  N  1508  1  0.15448600  0.15526900  0.17491700  1
  N  1536  1  0.34697300  0.84619300  0.67490800  1
  N  1564  1  0.60180800  0.41769600  0.92884000  1
  N  1592  1  0.89966500  0.58377300  0.42883500  1
  N  1620  1  0.34695700  0.15526400  0.85442800  1
  N  1648  1  0.15448400  0.84620600  0.35442900  1
  N  1676  1  0.89967300  0.41767200  0.10050200  1
  N  1704  1  0.60181000  0.58374600  0.60049800  1
  O  429  1  0.81158600  0.86155500  0.08620100  1
  O  430  1  0.83318700  0.82822300  0.07427300  1
  O  457  1  0.68987300  0.13987800  0.58619700  1
  O  458  1  0.66827600  0.17321400  0.57427300  1
  O  485  1  0.40791400  0.57812600  0.33333333  1
  O  486  1  0.43673900  0.60793000  0.33250200  1
  O  513  1  0.09351200  0.42331600  0.83331100  1
  O  514  1  0.06469000  0.39351000  0.83247600  1
  O  541  1  0.68988500  0.86159600  0.41523700  1
  O  542  1  0.66829600  0.82826100  0.42718200  1
  O  569  1  0.81158000  0.13989400  0.91525800  1
  O  570  1  0.83318100  0.17322900  0.92717600  1
  O  597  1  0.09352600  0.57812800  0.16812500  1
  O  598  1  0.06470300  0.60793400  0.16896200  1
  O  625  1  0.40791400  0.42333400  0.66811300  1
  O  626  1  0.43673900  0.39352900  0.66895200  1
  O  653  1  0.17797700  0.14924500  0.91891700  1
  O  654  1  0.14819400  0.17807500  0.92053300  1
  O  681  1  0.32348400  0.85220900  0.41892000  1
  O  682  1  0.35327300  0.82338600  0.42051800  1
  O  709  1  0.61374300  0.44019600  0.66639800  1
  O  710  1  0.58034500  0.41887600  0.67863900  1
  O  737  1  0.88773400  0.56127000  0.16640600  1
  O  738  1  0.92113400  0.58259900  0.17862500  1
  O  765  1  0.32346500  0.14923700  0.58254000  1
  O  766  1  0.35324500  0.17806900  0.58091800  1
  O  793  1  0.17797300  0.85222800  0.08253300  1
  O  794  1  0.14818700  0.82340100  0.08092500  1
  O  821  1  0.88774500  0.44017400  0.83504700  1
  O  822  1  0.92114000  0.41884500  0.82281600  1
  O  849  1  0.61374300  0.56124800  0.33504400  1
  O  850  1  0.58034100  0.58256900  0.32281400  1
  O  1285  1  0.81158600  0.86155500  0.35014600  1
  O  1286  1  0.83318700  0.82822300  0.33821800  1
  O  1313  1  0.68987300  0.13987800  0.85014200  1
  O  1314  1  0.66827600  0.17321400  0.83821800  1
  O  1341  1  0.40791400  0.57812600  0.59728800  1
  O  1342  1  0.43673900  0.60793000  0.59644700  1
  O  1369  1  0.09351200  0.42331600  0.09725650  1
  O  1370  1  0.06469000  0.39351000  0.09642150  1
  O  1397  1  0.68988500  0.86159600  0.67918200  1
  O  1398  1  0.66829600  0.82826100  0.69112700  1
  O  1425  1  0.81158000  0.13989400  0.17920300  1
  O  1426  1  0.83318100  0.17322900  0.19112100  1
  O  1453  1  0.09352600  0.57812800  0.43207000  1
  O  1454  1  0.06470300  0.60793400  0.43290700  1
  O  1481  1  0.40791400  0.42333400  0.93205800  1
  O  1482  1  0.43673900  0.39352900  0.93289700  1
  O  1509  1  0.17797700  0.14924500  0.18286200  1
  O  1510  1  0.14819400  0.17807500  0.18447800  1
  O  1537  1  0.32348400  0.85220900  0.68286500  1
  O  1538  1  0.35327300  0.82338600  0.68446300  1
  O  1565  1  0.61374300  0.44019600  0.93034300  1
  O  1566  1  0.58034500  0.41887600  0.94258400  1
  O  1593  1  0.88773400  0.56127000  0.43035100  1
  O  1594  1  0.92113400  0.58259900  0.44257000  1
  O  1621  1  0.32346500  0.14923700  0.84648500  1
  O  1622  1  0.35324500  0.17806900  0.84486300  1
  O  1649  1  0.17797300  0.85222800  0.34647800  1
  O  1650  1  0.14818700  0.82340100  0.34487000  1
  O  1677  1  0.88774500  0.44017400  0.09899250  1
  O  1678  1  0.92114000  0.41884500  0.08676150  1
  O  1705  1  0.61374300  0.56124800  0.59898900  1
  O  1706  1  0.58034100  0.58256900  0.58675900  1
