# generated using pymatgen
data_H24C28N
_symmetry_space_group_name_H-M   'P 1'
_cell_length_a   19.56570000
_cell_length_b   28.89230000
_cell_length_c   30.11050000
_cell_angle_alpha   89.99990000
_cell_angle_beta   90.00000000
_cell_angle_gamma   90.00000000
_symmetry_Int_Tables_number   1
_chemical_formula_structural   H24C28N
_chemical_formula_sum   'H384 C448 N16'
_cell_volume   17021.40766046
_cell_formula_units_Z   16
loop_
 _symmetry_equiv_pos_site_id
 _symmetry_equiv_pos_as_xyz
  1  'x, y, z'
loop_
 _atom_site_type_symbol
 _atom_site_label
 _atom_site_symmetry_multiplicity
 _atom_site_fract_x
 _atom_site_fract_y
 _atom_site_fract_z
 _atom_site_occupancy
  C  1  1  0.06060000  0.23643700  0.04797000  1
  C  2  1  0.06062700  0.26382300  0.00461200  1
  C  3  1  0.12571000  0.20311800  0.04655800  1
  C  4  1  0.12833700  0.16924100  0.00559300  1
  C  7  1  0.12509200  0.20253500  0.21242100  1
  C  8  1  0.06010600  0.23597100  0.21089400  1
  C  13  1  0.99510800  0.20257700  0.21243500  1
  C  14  1  0.99379000  0.16902800  0.00532500  1
  C  17  1  0.06118400  0.13980000  0.00517600  1
  C  20  1  0.99572800  0.20293600  0.04628500  1
  C  23  1  0.06173600  0.77539100  0.21223600  1
  C  24  1  0.06122400  0.74750100  0.00503100  1
  C  25  1  0.12638500  0.80900900  0.21410900  1
  C  26  1  0.12872100  0.84200900  0.00408700  1
  C  29  1  0.12612000  0.80936900  0.04610100  1
  C  30  1  0.06151700  0.77569600  0.04808900  1
  C  35  1  0.99701000  0.80950800  0.04635900  1
  C  36  1  0.99417800  0.84211000  0.00431700  1
  C  39  1  0.06151600  0.87139800  0.00449600  1
  C  42  1  0.99729600  0.80924100  0.21398300  1
  C  45  1  0.06155100  0.73616900  0.17331500  1
  C  46  1  0.06157800  0.76421500  0.13012900  1
  C  47  1  0.12584900  0.70204600  0.17154100  1
  C  48  1  0.12877100  0.66939400  0.12949200  1
  C  51  1  0.12692500  0.70327100  0.08862100  1
  C  52  1  0.06164800  0.73630100  0.08690000  1
  C  57  1  0.99730200  0.70217800  0.08862700  1
  C  58  1  0.99428000  0.66943500  0.13060700  1
  C  61  1  0.06149600  0.64007100  0.13002400  1
  C  64  1  0.99622800  0.70318500  0.17155500  1
  C  67  1  0.06037000  0.27637800  0.08628000  1
  C  68  1  0.06034100  0.24870100  0.12948300  1
  C  69  1  0.12470300  0.31044800  0.08811000  1
  C  70  1  0.12756600  0.34302600  0.13027400  1
  C  73  1  0.12553000  0.30920400  0.17123600  1
  C  74  1  0.06027400  0.27616700  0.17277500  1
  C  79  1  0.99591600  0.31022000  0.17106100  1
  C  80  1  0.99308000  0.34299500  0.12901800  1
  C  83  1  0.06031400  0.37235600  0.12970500  1
  C  86  1  0.99508800  0.30933600  0.08792200  1
  C  90  1  0.26812100  0.04888500  0.00597900  1
  C  91  1  0.37658700  0.00571600  0.00494300  1
  C  92  1  0.26824500  0.96246400  0.00385200  1
  C  93  1  0.23469700  0.94793800  0.96490500  1
  C  94  1  0.19561700  0.90689500  0.96422400  1
  C  95  1  0.18714400  0.87791500  0.00225100  1
  C  96  1  0.22484300  0.89200700  0.04037900  1
  C  97  1  0.26428700  0.93305600  0.04122400  1
  C  98  1  0.26407400  0.07824000  0.96856800  1
  C  99  1  0.22455600  0.11926000  0.96936500  1
  C  100  1  0.18681200  0.13336700  0.00747400  1
  C  101  1  0.19528500  0.10440400  0.04551100  1
  C  102  1  0.23444100  0.06339200  0.04488500  1
  C  103  1  0.41353000  0.00390900  0.04510000  1
  C  104  1  0.48559500  0.00347300  0.04501500  1
  C  105  1  0.52386000  0.00562000  0.00494000  1
  C  106  1  0.48559500  0.00782300  0.96486900  1
  C  107  1  0.41352900  0.00747000  0.96478600  1
  C  121  1  0.85448000  0.96244300  0.00412400  1
  C  122  1  0.74531000  0.00547500  0.00491200  1
  C  123  1  0.85443400  0.04851100  0.00558900  1
  C  124  1  0.88852400  0.06283400  0.04440200  1
  C  125  1  0.92741400  0.10391800  0.04509700  1
  C  126  1  0.93560200  0.13295600  0.00710900  1
  C  127  1  0.89742200  0.11906200  0.96908600  1
  C  128  1  0.85769000  0.07809900  0.96832900  1
  C  129  1  0.85776600  0.93281400  0.04135500  1
  C  130  1  0.89759200  0.89189000  0.04057500  1
  C  131  1  0.93590400  0.87812300  0.00257300  1
  C  132  1  0.92771000  0.90719000  0.96461300  1
  C  133  1  0.88865800  0.94820400  0.96531400  1
  C  134  1  0.70814800  0.98579900  0.96947800  1
  C  135  1  0.63608200  0.98538700  0.96979400  1
  C  136  1  0.59784200  0.00556400  0.00493700  1
  C  137  1  0.63616000  0.02568900  0.04007400  1
  C  138  1  0.70822400  0.02519600  0.04036000  1
  C  152  1  0.26846300  0.54907100  0.12896200  1
  C  153  1  0.37710500  0.50584100  0.12999300  1
  C  154  1  0.26816400  0.46286100  0.13111800  1
  C  155  1  0.23269300  0.44919600  0.16962500  1
  C  156  1  0.19304700  0.40843400  0.17015500  1
  C  157  1  0.18582900  0.37898400  0.13238300  1
  C  158  1  0.22542500  0.39211500  0.09475600  1
  C  159  1  0.26555100  0.43289800  0.09409200  1
  C  160  1  0.26589800  0.57903400  0.16598400  1
  C  161  1  0.22609500  0.61996200  0.16523000  1
  C  162  1  0.18698400  0.63338800  0.12748200  1
  C  163  1  0.19414000  0.60385000  0.08974900  1
  C  164  1  0.23333200  0.56288800  0.09037900  1
  C  165  1  0.41401500  0.51986900  0.09205800  1
  C  166  1  0.48609000  0.51993500  0.09206000  1
  C  167  1  0.52412200  0.50599700  0.12992000  1
  C  168  1  0.48624500  0.49192700  0.16780200  1
  C  169  1  0.41416400  0.49184400  0.16787700  1
  C  183  1  0.85344200  0.46328000  0.12866500  1
  C  184  1  0.74482400  0.50645700  0.12982300  1
  C  185  1  0.85373800  0.54949300  0.13100100  1
  C  186  1  0.88907200  0.56309500  0.16957700  1
  C  187  1  0.92866000  0.60388100  0.17023800  1
  C  188  1  0.93596400  0.63348800  0.13257100  1
  C  189  1  0.89659400  0.62032900  0.09484400  1
  C  190  1  0.85649800  0.57952500  0.09403400  1
  C  191  1  0.85604400  0.43328500  0.16566500  1
  C  192  1  0.89579800  0.39234400  0.16484300  1
  C  193  1  0.93484600  0.37896000  0.12705600  1
  C  194  1  0.92764400  0.40852100  0.08934800  1
  C  195  1  0.88844200  0.44947300  0.09003000  1
  C  196  1  0.70785600  0.49260600  0.09185200  1
  C  197  1  0.63578000  0.49247800  0.09192100  1
  C  198  1  0.59781600  0.50615300  0.12989500  1
  C  199  1  0.63575000  0.52000100  0.16782700  1
  C  200  1  0.70783000  0.52015600  0.16783100  1
  C  425  1  0.06016100  0.23501400  0.29729800  1
  C  426  1  0.06001500  0.26320700  0.25428100  1
  C  427  1  0.12469700  0.20126300  0.29542900  1
  C  428  1  0.12744200  0.16867500  0.25341000  1
  C  431  1  0.12656800  0.20173000  0.46249600  1
  C  432  1  0.06146000  0.23500900  0.46095800  1
  C  437  1  0.99656600  0.20151500  0.46268900  1
  C  438  1  0.99290000  0.16869200  0.25345800  1
  C  441  1  0.06019800  0.13934200  0.25371200  1
  C  444  1  0.99560000  0.20129000  0.29549400  1
  C  447  1  0.06016700  0.77463900  0.46235000  1
  C  448  1  0.06167400  0.74716200  0.25532300  1
  C  449  1  0.12471200  0.80838500  0.46422300  1
  C  450  1  0.12910300  0.84169600  0.25608100  1
  C  453  1  0.12661400  0.80791500  0.29714800  1
  C  454  1  0.06149100  0.77464700  0.29869000  1
  C  459  1  0.99661200  0.80815000  0.29696400  1
  C  460  1  0.99455600  0.84192800  0.25590600  1
  C  463  1  0.06194000  0.87115400  0.25566600  1
  C  466  1  0.99561400  0.80836800  0.46415000  1
  C  469  1  0.06050300  0.73515800  0.42363600  1
  C  470  1  0.06083700  0.76287200  0.38047200  1
  C  471  1  0.12546000  0.70173400  0.42195200  1
  C  472  1  0.12788900  0.66817800  0.38073100  1
  C  475  1  0.12548100  0.70111500  0.33894800  1
  C  476  1  0.06102000  0.73495100  0.33722100  1
  C  481  1  0.99634600  0.70122900  0.33870900  1
  C  482  1  0.99338600  0.66828900  0.38051100  1
  C  485  1  0.06057500  0.63888700  0.38012000  1
  C  488  1  0.99549200  0.70188600  0.42168600  1
  C  491  1  0.06047700  0.27449300  0.33601200  1
  C  492  1  0.06085700  0.24678200  0.37917600  1
  C  493  1  0.12540400  0.30794600  0.33769600  1
  C  494  1  0.12780600  0.34150100  0.37891700  1
  C  497  1  0.12541300  0.30856800  0.42070700  1
  C  498  1  0.06098100  0.27470300  0.42242700  1
  C  503  1  0.99627400  0.30840000  0.42093300  1
  C  504  1  0.99330000  0.34134000  0.37913300  1
  C  507  1  0.06046200  0.37076700  0.37952500  1
  C  510  1  0.99543000  0.30773700  0.33796200  1
  C  514  1  0.26776100  0.04860800  0.25335500  1
  C  515  1  0.37642500  0.00563400  0.25450000  1
  C  516  1  0.26831100  0.96222600  0.25583400  1
  C  517  1  0.23497200  0.94777300  0.29487900  1
  C  518  1  0.19606200  0.90665800  0.29573700  1
  C  519  1  0.18755300  0.87757000  0.25779500  1
  C  520  1  0.22512400  0.89157800  0.21958100  1
  C  521  1  0.26439600  0.93268600  0.21855800  1
  C  522  1  0.26369600  0.07811100  0.29065400  1
  C  523  1  0.22392900  0.11901300  0.28975300  1
  C  524  1  0.18591600  0.13281200  0.25165600  1
  C  525  1  0.19441600  0.10373000  0.21371300  1
  C  526  1  0.23383300  0.06283500  0.21444300  1
  C  527  1  0.41331500  0.00356300  0.21433600  1
  C  528  1  0.48537300  0.00304000  0.21439500  1
  C  529  1  0.52366600  0.00535100  0.25444800  1
  C  530  1  0.48546100  0.00783400  0.29452700  1
  C  531  1  0.41339700  0.00756200  0.29463900  1
  C  545  1  0.85441800  0.96203600  0.25550900  1
  C  546  1  0.74507400  0.00492100  0.25439700  1
  C  547  1  0.85396800  0.04808200  0.25354800  1
  C  548  1  0.88789000  0.06235700  0.21465300  1
  C  549  1  0.92652000  0.10355100  0.21379200  1
  C  550  1  0.93464000  0.13269200  0.25170600  1
  C  551  1  0.89651200  0.11887100  0.28977800  1
  C  552  1  0.85701500  0.07782200  0.29069200  1
  C  553  1  0.85763800  0.93213200  0.21848700  1
  C  554  1  0.89762600  0.89129700  0.21948300  1
  C  555  1  0.93624000  0.87792000  0.25749200  1
  C  556  1  0.92809800  0.90723900  0.29526800  1
  C  557  1  0.88884200  0.94816700  0.29435700  1
  C  558  1  0.70790800  0.98545700  0.28993500  1
  C  559  1  0.63584200  0.98511800  0.28964200  1
  C  560  1  0.59763800  0.00517700  0.25442000  1
  C  561  1  0.63596000  0.02507600  0.21917100  1
  C  562  1  0.70801400  0.02449300  0.21886100  1
  C  576  1  0.26747400  0.54782400  0.38069400  1
  C  577  1  0.37656800  0.50480600  0.37983100  1
  C  578  1  0.26746700  0.46179400  0.37894100  1
  C  579  1  0.23304200  0.44780100  0.34014700  1
  C  580  1  0.19392600  0.40682800  0.33935600  1
  C  581  1  0.18605100  0.37752300  0.37717700  1
  C  582  1  0.22469000  0.39101800  0.41513100  1
  C  583  1  0.26446200  0.43195600  0.41602400  1
  C  584  1  0.26438600  0.57760400  0.34357400  1
  C  585  1  0.22460100  0.61853200  0.34445800  1
  C  586  1  0.18620300  0.63221700  0.38245400  1
  C  587  1  0.19408000  0.60288800  0.42026800  1
  C  588  1  0.23310600  0.56187300  0.41949100  1
  C  589  1  0.41365900  0.52430200  0.41538600  1
  C  590  1  0.48571200  0.52475900  0.41508700  1
  C  591  1  0.52394800  0.50482000  0.37982400  1
  C  592  1  0.48571600  0.48486300  0.34456700  1
  C  593  1  0.41366200  0.48530300  0.34427800  1
  C  607  1  0.85347800  0.46164200  0.37893400  1
  C  608  1  0.74509400  0.50484100  0.37981700  1
  C  609  1  0.85352000  0.54799700  0.38070700  1
  C  610  1  0.88690400  0.56255100  0.41968000  1
  C  611  1  0.92621800  0.60346600  0.42029500  1
  C  612  1  0.93500400  0.63237300  0.38224800  1
  C  613  1  0.89765200  0.61817200  0.34401300  1
  C  614  1  0.85800600  0.57719900  0.34319600  1
  C  615  1  0.85797000  0.43246800  0.41646200  1
  C  616  1  0.89760600  0.39149200  0.41566200  1
  C  617  1  0.93487600  0.37722500  0.37741600  1
  C  618  1  0.92608000  0.40611200  0.33935000  1
  C  619  1  0.88680200  0.44704300  0.33995400  1
  C  620  1  0.70817200  0.50711100  0.33967500  1
  C  621  1  0.63611800  0.50747500  0.33976200  1
  C  622  1  0.59789400  0.50483000  0.37982100  1
  C  623  1  0.63612400  0.50218200  0.41987600  1
  C  624  1  0.70817800  0.50257000  0.41995900  1
  C  849  1  0.06169900  0.23426500  0.54741000  1
  C  850  1  0.06167100  0.26249200  0.50432500  1
  C  851  1  0.12634300  0.20063800  0.54554000  1
  C  852  1  0.12905300  0.16795100  0.50356800  1
  C  855  1  0.12608700  0.20027800  0.71354100  1
  C  856  1  0.06149000  0.23395900  0.71155800  1
  C  861  1  0.99697400  0.20015300  0.71329200  1
  C  862  1  0.99451000  0.16773100  0.50374100  1
  C  865  1  0.06188400  0.13849900  0.50398000  1
  C  868  1  0.99725000  0.20041900  0.54566300  1
  C  871  1  0.06060700  0.77321600  0.71167800  1
  C  872  1  0.05998700  0.74644500  0.50536500  1
  C  873  1  0.12573100  0.80652600  0.71309300  1
  C  874  1  0.12745900  0.84097200  0.50623800  1
  C  877  1  0.12510300  0.80710800  0.54722400  1
  C  878  1  0.06010600  0.77368100  0.54875500  1
  C  883  1  0.99511800  0.80708400  0.54721700  1
  C  884  1  0.99291600  0.84096500  0.50618800  1
  C  887  1  0.06022200  0.87030900  0.50593300  1
  C  890  1  0.99574800  0.80672700  0.71335500  1
  C  893  1  0.06038500  0.73327500  0.67336600  1
  C  894  1  0.06029500  0.76095000  0.63016500  1
  C  895  1  0.12474800  0.69923100  0.67153300  1
  C  896  1  0.12762200  0.66666667  0.62937500  1
  C  899  1  0.12556200  0.70047400  0.58841600  1
  C  900  1  0.06028300  0.73348600  0.58687500  1
  C  905  1  0.99595200  0.69940800  0.58858500  1
  C  906  1  0.99314100  0.66666667  0.63063000  1
  C  909  1  0.06039600  0.63729800  0.62994600  1
  C  912  1  0.99513400  0.70029000  0.67173200  1
  C  915  1  0.06150100  0.27348500  0.58633300  1
  C  916  1  0.06157700  0.24544000  0.62951700  1
  C  917  1  0.12577500  0.30763300  0.58810000  1
  C  918  1  0.12868000  0.34028200  0.63015500  1
  C  921  1  0.12686000  0.30640500  0.67102800  1
  C  922  1  0.06160800  0.27335300  0.67274800  1
  C  927  1  0.99723400  0.30745500  0.67101800  1
  C  928  1  0.99418800  0.34019800  0.62904300  1
  C  931  1  0.06138200  0.36957900  0.62962700  1
  C  934  1  0.99615400  0.30644300  0.58809700  1
  C  938  1  0.26826900  0.04741800  0.50381100  1
  C  939  1  0.37641300  0.00403600  0.50513900  1
  C  940  1  0.26777100  0.96103500  0.50629100  1
  C  941  1  0.23390000  0.94678600  0.54521500  1
  C  942  1  0.19446800  0.90589600  0.54594900  1
  C  943  1  0.18593900  0.87682900  0.50799500  1
  C  944  1  0.22392700  0.89064300  0.46989200  1
  C  945  1  0.26371600  0.93152900  0.46899200  1
  C  946  1  0.26434500  0.07695700  0.54108700  1
  C  947  1  0.22509800  0.11807800  0.54006400  1
  C  948  1  0.18749700  0.13207300  0.50185400  1
  C  949  1  0.19597600  0.10296700  0.46392700  1
  C  950  1  0.23487500  0.06185000  0.46477800  1
  C  951  1  0.41338700  0.00210200  0.46500400  1
  C  952  1  0.48545100  0.00182800  0.46511600  1
  C  953  1  0.52365600  0.00430600  0.50519900  1
  C  954  1  0.48535500  0.00663900  0.54524800  1
  C  955  1  0.41329900  0.00611600  0.54530400  1
  C  969  1  0.85396800  0.96156100  0.50609900  1
  C  970  1  0.74505800  0.00472200  0.50525500  1
  C  971  1  0.85438800  0.04760800  0.50413600  1
  C  972  1  0.88878400  0.06149200  0.46528600  1
  C  973  1  0.92798600  0.10244300  0.46435300  1
  C  974  1  0.93618000  0.13175400  0.50213700  1
  C  975  1  0.89760600  0.11834600  0.54015700  1
  C  976  1  0.85760800  0.07751400  0.54115600  1
  C  977  1  0.85702000  0.93182300  0.46894900  1
  C  978  1  0.89650800  0.89077100  0.46985900  1
  C  979  1  0.93467200  0.87697800  0.50791900  1
  C  980  1  0.92659600  0.90612800  0.54582900  1
  C  981  1  0.88791000  0.94729800  0.54498900  1
  C  982  1  0.70800000  0.98517000  0.54080100  1
  C  983  1  0.63594400  0.98458800  0.54048500  1
  C  984  1  0.59762200  0.00447600  0.50522900  1
  C  985  1  0.63583200  0.02453600  0.47000800  1
  C  986  1  0.70789600  0.02419900  0.46971900  1
  C  1000  1  0.26815200  0.54675800  0.62854800  1
  C  1001  1  0.37708900  0.50378100  0.62965400  1
  C  1002  1  0.26844400  0.46054800  0.63070300  1
  C  1003  1  0.23326600  0.44677900  0.66928800  1
  C  1004  1  0.19398900  0.40585500  0.66992500  1
  C  1005  1  0.18683100  0.37634500  0.63218400  1
  C  1006  1  0.22617100  0.38959100  0.59448300  1
  C  1007  1  0.26595600  0.43053000  0.59371600  1
  C  1008  1  0.26546300  0.57666600  0.66560800  1
  C  1009  1  0.22531800  0.61744100  0.66495700  1
  C  1010  1  0.18594800  0.63074900  0.62728200  1
  C  1011  1  0.19316400  0.60127100  0.58951800  1
  C  1012  1  0.23272500  0.56046800  0.59004000  1
  C  1013  1  0.41414400  0.51777800  0.59177000  1
  C  1014  1  0.48622400  0.51769800  0.59184300  1
  C  1015  1  0.52410000  0.50364900  0.62972700  1
  C  1016  1  0.48607900  0.48969800  0.66758400  1
  C  1017  1  0.41400100  0.48975600  0.66758700  1
  C  1031  1  0.85368200  0.46014600  0.62866400  1
  C  1032  1  0.74480600  0.50322000  0.62983000  1
  C  1033  1  0.85346200  0.54636000  0.63099900  1
  C  1034  1  0.88850800  0.56013200  0.66962600  1
  C  1035  1  0.92774600  0.60107000  0.67031400  1
  C  1036  1  0.93494800  0.63064200  0.63261600  1
  C  1037  1  0.89582800  0.61731000  0.59484200  1
  C  1038  1  0.85607000  0.57636800  0.59401200  1
  C  1039  1  0.85644200  0.43012800  0.66564100  1
  C  1040  1  0.89653400  0.38932500  0.66483700  1
  C  1041  1  0.93583200  0.37611400  0.62710300  1
  C  1042  1  0.92852800  0.40571000  0.58942200  1
  C  1043  1  0.88897400  0.44651300  0.59007900  1
  C  1044  1  0.70781600  0.48951400  0.59182000  1
  C  1045  1  0.63573400  0.48967700  0.59182000  1
  C  1046  1  0.59779600  0.50351400  0.62975300  1
  C  1047  1  0.63576000  0.51720700  0.66772300  1
  C  1048  1  0.70784000  0.51707200  0.66780000  1
  C  1273  1  0.06112100  0.23481000  0.79804300  1
  C  1274  1  0.06123100  0.26215300  0.75461700  1
  C  1275  1  0.12616000  0.20146900  0.79659200  1
  C  1276  1  0.12868400  0.16763800  0.75556000  1
  C  1279  1  0.12570400  0.20190300  0.96362300  1
  C  1280  1  0.06103000  0.23555900  0.96163100  1
  C  1285  1  0.99659000  0.20164800  0.96332100  1
  C  1286  1  0.99414200  0.16754700  0.75533100  1
  C  1289  1  0.06147000  0.13825500  0.75515500  1
  C  1292  1  0.99617200  0.20141300  0.79634900  1
  C  1295  1  0.06114300  0.77484300  0.96160700  1
  C  1296  1  0.06060600  0.74583200  0.75503500  1
  C  1297  1  0.12619100  0.80817700  0.96306200  1
  C  1298  1  0.12836300  0.84040700  0.75405200  1
  C  1301  1  0.12572500  0.80774500  0.79602400  1
  C  1302  1  0.06104100  0.77409500  0.79802000  1
  C  1307  1  0.99661200  0.80801100  0.79633000  1
  C  1308  1  0.99381600  0.84063200  0.75432100  1
  C  1311  1  0.06121800  0.86985100  0.75447400  1
  C  1314  1  0.99620200  0.80825000  0.96329400  1
  C  1317  1  0.06100900  0.73499800  0.92321900  1
  C  1318  1  0.06097900  0.76260400  0.87983200  1
  C  1319  1  0.12536700  0.70087800  0.92163100  1
  C  1320  1  0.12827500  0.66800800  0.87969600  1
  C  1323  1  0.12641900  0.70167100  0.83864700  1
  C  1324  1  0.06112800  0.73463100  0.83677100  1
  C  1329  1  0.99681600  0.70053900  0.83866400  1
  C  1330  1  0.99378400  0.66805600  0.88084800  1
  C  1333  1  0.06101300  0.63868900  0.88041000  1
  C  1336  1  0.99572800  0.70198200  0.92171100  1
  C  1339  1  0.06097900  0.27465700  0.83642800  1
  C  1340  1  0.06100000  0.24704900  0.87981500  1
  C  1341  1  0.12530700  0.30879900  0.83801300  1
  C  1342  1  0.12820300  0.34166800  0.87995100  1
  C  1345  1  0.12637000  0.30800800  0.92100400  1
  C  1346  1  0.06110600  0.27502500  0.92288000  1
  C  1351  1  0.99676400  0.30909200  0.92098400  1
  C  1352  1  0.99371400  0.34157600  0.87880200  1
  C  1355  1  0.06091700  0.37096300  0.87924100  1
  C  1358  1  0.99566800  0.30764700  0.83794300  1
  C  1362  1  0.26821500  0.04717900  0.75580200  1
  C  1363  1  0.37658200  0.00395300  0.75471000  1
  C  1364  1  0.26814200  0.96075800  0.75367300  1
  C  1365  1  0.23452300  0.94622800  0.71475300  1
  C  1366  1  0.19535200  0.90522100  0.71412200  1
  C  1367  1  0.18684800  0.87627500  0.75216900  1
  C  1368  1  0.22455700  0.89039600  0.79028800  1
  C  1369  1  0.26409900  0.93140400  0.79108200  1
  C  1370  1  0.26424300  0.07658500  0.71842300  1
  C  1371  1  0.22482300  0.11764400  0.71927000  1
  C  1372  1  0.18709900  0.13172800  0.75739600  1
  C  1373  1  0.19554500  0.10273300  0.79541000  1
  C  1374  1  0.23461400  0.06168400  0.79473200  1
  C  1375  1  0.41353000  0.00217400  0.79486800  1
  C  1376  1  0.48559500  0.00182100  0.79478200  1
  C  1377  1  0.52385600  0.00403900  0.75471000  1
  C  1378  1  0.48558900  0.00622200  0.71463700  1
  C  1379  1  0.41352300  0.00578800  0.71455400  1
  C  1393  1  0.85444000  0.96113500  0.75405500  1
  C  1394  1  0.74530400  0.00417100  0.75472900  1
  C  1395  1  0.85446400  0.04720400  0.75552300  1
  C  1396  1  0.88861200  0.06145400  0.79434000  1
  C  1397  1  0.92761400  0.10249100  0.79506100  1
  C  1398  1  0.93585800  0.13154900  0.75709700  1
  C  1399  1  0.89757600  0.11775400  0.71908100  1
  C  1400  1  0.85774600  0.07683600  0.71829700  1
  C  1401  1  0.85769400  0.93154900  0.79131800  1
  C  1402  1  0.89742200  0.89058000  0.79056700  1
  C  1403  1  0.93563800  0.87671800  0.75255700  1
  C  1404  1  0.92750600  0.90576800  0.71457400  1
  C  1405  1  0.88856000  0.94682700  0.71524800  1
  C  1406  1  0.70821400  0.98447700  0.71926700  1
  C  1407  1  0.63614800  0.98398200  0.71955900  1
  C  1408  1  0.59784200  0.00409100  0.75470600  1
  C  1409  1  0.63608200  0.02425800  0.78985700  1
  C  1410  1  0.70814800  0.02384800  0.79016600  1
  C  1424  1  0.26847900  0.54791000  0.87890200  1
  C  1425  1  0.37728100  0.50481200  0.87982200  1
  C  1426  1  0.26847400  0.46170700  0.88076200  1
  C  1427  1  0.23309600  0.44797700  0.91927000  1
  C  1428  1  0.19353300  0.40719100  0.91977500  1
  C  1429  1  0.18635100  0.37772300  0.88199700  1
  C  1430  1  0.22575900  0.39096500  0.84433300  1
  C  1431  1  0.26580500  0.43180300  0.84368500  1
  C  1432  1  0.26573000  0.57776200  0.91601200  1
  C  1433  1  0.22566600  0.61858600  0.91537800  1
  C  1434  1  0.18648500  0.63200900  0.87766700  1
  C  1435  1  0.19366900  0.60252000  0.83989900  1
  C  1436  1  0.23314400  0.56169200  0.84039400  1
  C  1437  1  0.41425700  0.51885000  0.84192200  1
  C  1438  1  0.48633600  0.51884000  0.84195800  1
  C  1439  1  0.52429000  0.50482200  0.87982200  1
  C  1440  1  0.48634100  0.49079100  0.91768200  1
  C  1441  1  0.41426100  0.49077400  0.91772200  1
  C  1455  1  0.85373800  0.46170700  0.87854700  1
  C  1456  1  0.74500200  0.50483600  0.87982500  1
  C  1457  1  0.85377400  0.54793100  0.88111700  1
  C  1458  1  0.88887600  0.56162600  0.91975800  1
  C  1459  1  0.92819000  0.60254400  0.92050200  1
  C  1460  1  0.93548400  0.63212600  0.88282800  1
  C  1461  1  0.89622600  0.61890800  0.84506700  1
  C  1462  1  0.85638200  0.57800800  0.84418700  1
  C  1463  1  0.85634000  0.43164700  0.91548700  1
  C  1464  1  0.89618000  0.39074700  0.91461700  1
  C  1465  1  0.93536600  0.37747700  0.87684600  1
  C  1466  1  0.92807400  0.40704900  0.83915800  1
  C  1467  1  0.88879600  0.44798400  0.83989600  1
  C  1468  1  0.70802400  0.49111300  0.84181900  1
  C  1469  1  0.63594400  0.49112700  0.84185200  1
  C  1470  1  0.59799000  0.50483300  0.87982200  1
  C  1471  1  0.63594000  0.51855600  0.91778900  1
  C  1472  1  0.70802000  0.51856300  0.91782900  1
  H  5  1  0.12590400  0.18182900  0.07624500  1
  H  6  1  0.17294100  0.22323100  0.04700600  1
  H  9  1  0.17241400  0.22254800  0.21213400  1
  H  10  1  0.12537200  0.18130000  0.18268300  1
  H  11  1  0.10577700  0.28534100  0.00488700  1
  H  12  1  0.01515400  0.28504900  0.00424400  1
  H  15  1  0.99476600  0.18135800  0.18269000  1
  H  16  1  0.94783800  0.22265900  0.21212700  1
  H  18  1  0.06026400  0.11665800  0.22465600  1
  H  19  1  0.06120300  0.11710400  0.03422500  1
  H  21  1  0.94835400  0.22290000  0.04642100  1
  H  22  1  0.99528200  0.18173300  0.07602800  1
  H  27  1  0.12548500  0.83137800  0.18500100  1
  H  28  1  0.17380900  0.78915600  0.21278200  1
  H  31  1  0.17358900  0.78956800  0.04731500  1
  H  32  1  0.12530100  0.83170400  0.07524100  1
  H  33  1  0.10643200  0.72605800  0.00478500  1
  H  34  1  0.01583500  0.72621900  0.00538500  1
  H  37  1  0.99813000  0.83194600  0.07543300  1
  H  38  1  0.94950800  0.78974800  0.04784700  1
  H  40  1  0.06166400  0.89412200  0.03370000  1
  H  41  1  0.06208800  0.89384100  0.22643400  1
  H  43  1  0.94973400  0.78955000  0.21265300  1
  H  44  1  0.99836200  0.83163100  0.18487800  1
  H  49  1  0.12461000  0.67953500  0.20056500  1
  H  50  1  0.17345200  0.72167800  0.17308300  1
  H  53  1  0.17405400  0.72350200  0.08868000  1
  H  54  1  0.12799400  0.68205100  0.05891600  1
  H  55  1  0.10682500  0.78572600  0.13014900  1
  H  56  1  0.01624100  0.78563900  0.13008600  1
  H  59  1  0.99854400  0.67967000  0.05959700  1
  H  60  1  0.94972400  0.72183700  0.08707400  1
  H  62  1  0.05938900  0.61737600  0.10090100  1
  H  63  1  0.06355000  0.61731700  0.15910600  1
  H  65  1  0.94911000  0.72342500  0.17157300  1
  H  66  1  0.99520000  0.68188100  0.20120800  1
  H  71  1  0.12352700  0.33287200  0.05900000  1
  H  72  1  0.17228200  0.29078300  0.08663000  1
  H  75  1  0.17268000  0.28899800  0.17127600  1
  H  76  1  0.12631700  0.33031400  0.20105000  1
  H  77  1  0.10573000  0.22751300  0.12948900  1
  H  78  1  0.01505600  0.22740300  0.12947200  1
  H  81  1  0.99709200  0.33250500  0.20026700  1
  H  82  1  0.94836400  0.29051600  0.17247400  1
  H  84  1  0.05816200  0.39500900  0.15885500  1
  H  85  1  0.06246000  0.39514000  0.10064800  1
  H  87  1  0.94798000  0.28908500  0.08783800  1
  H  88  1  0.99427600  0.33049600  0.05814400  1
  H  108  1  0.22106100  0.13727800  0.94035900  1
  H  109  1  0.28750900  0.06869400  0.93963800  1
  H  110  1  0.23599500  0.04298000  0.07263500  1
  H  111  1  0.16838100  0.11066600  0.07389200  1
  H  112  1  0.23611100  0.96843100  0.93720400  1
  H  113  1  0.16865300  0.90066200  0.93586500  1
  H  114  1  0.38796900  0.00248300  0.07469800  1
  H  115  1  0.50977500  0.00069000  0.07499000  1
  H  116  1  0.50978000  0.01054500  0.93488900  1
  H  117  1  0.38796500  0.00888600  0.93518800  1
  H  118  1  0.28770200  0.94259200  0.07016600  1
  H  119  1  0.22144800  0.87391900  0.06935000  1
  H  139  1  0.90060600  0.87355200  0.06942700  1
  H  140  1  0.83342800  0.94210400  0.07006700  1
  H  141  1  0.88729800  0.96872500  0.93762900  1
  H  142  1  0.95480400  0.90103900  0.93628400  1
  H  143  1  0.88719600  0.04234000  0.07210300  1
  H  144  1  0.95452800  0.11010100  0.07341000  1
  H  145  1  0.73358000  0.97096500  0.94343800  1
  H  146  1  0.61187200  0.96925100  0.94400200  1
  H  147  1  0.61201400  0.04183400  0.06588500  1
  H  148  1  0.73371200  0.03997900  0.06640400  1
  H  149  1  0.83349400  0.06871500  0.93959500  1
  H  150  1  0.90051400  0.13733000  0.94019900  1
  H  170  1  0.22358100  0.63856500  0.19395600  1
  H  171  1  0.29071200  0.56997300  0.19459000  1
  H  172  1  0.23390100  0.54203100  0.06291900  1
  H  173  1  0.16622300  0.60966900  0.06168900  1
  H  174  1  0.23331600  0.47005000  0.19708800  1
  H  175  1  0.16494700  0.40268900  0.19815300  1
  H  176  1  0.38838300  0.53027000  0.06418400  1
  H  177  1  0.51059300  0.53128100  0.06409500  1
  H  178  1  0.51087400  0.48069300  0.19576100  1
  H  179  1  0.38864000  0.48145100  0.19579600  1
  H  180  1  0.29054000  0.44188300  0.06552900  1
  H  181  1  0.22279300  0.37358100  0.06599500  1
  H  201  1  0.89847600  0.37379200  0.19359000  1
  H  202  1  0.83137800  0.44237800  0.19431500  1
  H  203  1  0.88787600  0.47037900  0.06260300  1
  H  204  1  0.95554400  0.40273800  0.06127600  1
  H  205  1  0.88839200  0.54218300  0.19699800  1
  H  206  1  0.95665400  0.60956800  0.19829100  1
  H  207  1  0.73344600  0.48240300  0.06389300  1
  H  208  1  0.61123800  0.48129500  0.06391200  1
  H  209  1  0.61116200  0.53103500  0.19587600  1
  H  210  1  0.73339600  0.53039100  0.19578800  1
  H  211  1  0.83165000  0.57058200  0.06540700  1
  H  212  1  0.89932400  0.63891200  0.06611700  1
  H  429  1  0.12364500  0.17883900  0.32451200  1
  H  430  1  0.17219900  0.22102000  0.29681600  1
  H  433  1  0.17378900  0.22185700  0.46212400  1
  H  434  1  0.12690100  0.18044900  0.43280200  1
  H  435  1  0.10541400  0.28439200  0.25438700  1
  H  436  1  0.01476500  0.28464800  0.25415100  1
  H  439  1  0.99615600  0.18018100  0.43302800  1
  H  440  1  0.94921800  0.22150100  0.46242300  1
  H  442  1  0.06191500  0.11576100  0.47496300  1
  H  443  1  0.06023300  0.11659900  0.28290400  1
  H  445  1  0.94811400  0.22107100  0.29683600  1
  H  446  1  0.99657600  0.17890600  0.32460600  1
  H  451  1  0.12367500  0.83081000  0.43514000  1
  H  452  1  0.17221000  0.78862600  0.46284100  1
  H  455  1  0.17382900  0.78778200  0.29751000  1
  H  456  1  0.12696800  0.82919100  0.32684200  1
  H  457  1  0.10686100  0.72559500  0.25526100  1
  H  458  1  0.01626400  0.72592800  0.25542300  1
  H  461  1  0.99621800  0.82948800  0.32662400  1
  H  462  1  0.94925200  0.78816900  0.29723800  1
  H  464  1  0.06197900  0.89389300  0.28468100  1
  H  465  1  0.06026400  0.89305200  0.47674000  1
  H  467  1  0.94812800  0.78858800  0.46280200  1
  H  468  1  0.99659600  0.83075100  0.43503700  1
  H  473  1  0.12560900  0.68024700  0.45149700  1
  H  474  1  0.17279300  0.72173300  0.42249700  1
  H  477  1  0.17302200  0.72084700  0.33785500  1
  H  478  1  0.12463200  0.67893200  0.30969100  1
  H  479  1  0.10622200  0.78416500  0.38076400  1
  H  480  1  0.01560300  0.78431300  0.38058800  1
  H  483  1  0.99738400  0.67904700  0.30945800  1
  H  484  1  0.94890000  0.72105400  0.33740000  1
  H  486  1  0.06065200  0.61639300  0.35075100  1
  H  487  1  0.06036600  0.61595300  0.40900000  1
  H  489  1  0.94822600  0.72196800  0.42199900  1
  H  490  1  0.99502600  0.68050000  0.45128100  1
  H  495  1  0.12552600  0.32943500  0.30814700  1
  H  496  1  0.17275500  0.28796400  0.33714100  1
  H  499  1  0.17296700  0.28885000  0.42180900  1
  H  500  1  0.12453400  0.33075200  0.44996200  1
  H  501  1  0.10628700  0.22552600  0.37888400  1
  H  502  1  0.01566600  0.22530100  0.37905700  1
  H  505  1  0.99728000  0.33057900  0.45018100  1
  H  506  1  0.94884400  0.28855800  0.42223100  1
  H  508  1  0.06051900  0.39325700  0.40889400  1
  H  509  1  0.06022900  0.39370000  0.35064800  1
  H  511  1  0.94818400  0.28763800  0.33765900  1
  H  512  1  0.99494000  0.32911800  0.30836600  1
  H  532  1  0.22048700  0.13717400  0.31868100  1
  H  533  1  0.28731900  0.06876600  0.31958200  1
  H  534  1  0.23542100  0.04230900  0.18677200  1
  H  535  1  0.16740900  0.10984200  0.18534000  1
  H  536  1  0.23638200  0.96836300  0.32250900  1
  H  537  1  0.16918900  0.90047300  0.32414400  1
  H  538  1  0.38772000  0.00197100  0.18475800  1
  H  539  1  0.50951900  0.00003900  0.18442800  1
  H  540  1  0.50968300  0.01067500  0.32448200  1
  H  541  1  0.38786300  0.00913000  0.32424000  1
  H  542  1  0.28768100  0.94216900  0.18955600  1
  H  543  1  0.22172900  0.87339000  0.19066800  1
  H  563  1  0.90049400  0.87272500  0.19076400  1
  H  564  1  0.83310000  0.94114500  0.18976400  1
  H  565  1  0.88750200  0.96888900  0.32189900  1
  H  566  1  0.95530400  0.90131000  0.32359700  1
  H  567  1  0.88663800  0.04175400  0.18702500  1
  H  568  1  0.95357600  0.10971900  0.18545300  1
  H  569  1  0.73333000  0.97075100  0.31604800  1
  H  570  1  0.61161200  0.96915200  0.31552100  1
  H  571  1  0.61183600  0.04113500  0.19330200  1
  H  572  1  0.73351800  0.03914300  0.19275300  1
  H  573  1  0.83288000  0.06848800  0.31946400  1
  H  574  1  0.89948200  0.13724000  0.31860900  1
  H  594  1  0.22172600  0.63698700  0.31566700  1
  H  595  1  0.28882300  0.56842200  0.31486500  1
  H  596  1  0.23427600  0.54121000  0.44708000  1
  H  597  1  0.16681900  0.60886800  0.44856100  1
  H  598  1  0.23420000  0.46849200  0.31257600  1
  H  599  1  0.16662900  0.40085400  0.31107800  1
  H  600  1  0.38818900  0.53897800  0.44149300  1
  H  601  1  0.50990900  0.54076000  0.44096500  1
  H  602  1  0.50991300  0.46889300  0.31867600  1
  H  603  1  0.38819000  0.47065800  0.31815300  1
  H  604  1  0.28890800  0.44111700  0.44473500  1
  H  605  1  0.22174100  0.37259000  0.44393100  1
  H  625  1  0.90155200  0.37361500  0.44472800  1
  H  626  1  0.83491000  0.44217000  0.44547200  1
  H  627  1  0.88504600  0.46739100  0.31216400  1
  H  628  1  0.95282000  0.39989200  0.31090700  1
  H  629  1  0.88509000  0.54221700  0.44747800  1
  H  630  1  0.95293200  0.60970200  0.44874700  1
  H  631  1  0.73373000  0.50886300  0.31009500  1
  H  632  1  0.61191000  0.51058300  0.30982500  1
  H  633  1  0.61192200  0.49908800  0.44981900  1
  H  634  1  0.73374400  0.50080800  0.44954000  1
  H  635  1  0.83492000  0.56753200  0.31418400  1
  H  636  1  0.90161400  0.63605600  0.31495000  1
  H  853  1  0.12542900  0.17826800  0.57465000  1
  H  854  1  0.17376700  0.22048800  0.54687500  1
  H  857  1  0.17355700  0.22007800  0.71232200  1
  H  858  1  0.12525500  0.17794400  0.68440200  1
  H  859  1  0.10688600  0.28403900  0.50438800  1
  H  860  1  0.01628800  0.28375100  0.50422200  1
  H  863  1  0.99808800  0.17771500  0.68421900  1
  H  864  1  0.94947800  0.21991200  0.71180800  1
  H  866  1  0.06161200  0.11553000  0.72594900  1
  H  867  1  0.06202600  0.11581000  0.53320900  1
  H  869  1  0.94969200  0.22011000  0.54698800  1
  H  870  1  0.99831400  0.17803100  0.57476600  1
  H  875  1  0.12594900  0.82781200  0.68340600  1
  H  876  1  0.17295700  0.78640700  0.71265400  1
  H  879  1  0.17242000  0.78709200  0.54750000  1
  H  880  1  0.12540300  0.82834200  0.57696100  1
  H  881  1  0.10535700  0.72523900  0.50526200  1
  H  882  1  0.01470900  0.72502700  0.50549400  1
  H  885  1  0.99479200  0.82830400  0.57696100  1
  H  886  1  0.94784200  0.78700600  0.54753300  1
  H  888  1  0.06029400  0.89299300  0.53498900  1
  H  889  1  0.06124400  0.89254900  0.72542400  1
  H  891  1  0.94836800  0.78677000  0.71320900  1
  H  892  1  0.99532400  0.82793400  0.68361500  1
  H  897  1  0.12359500  0.67681000  0.70064200  1
  H  898  1  0.17231200  0.71891100  0.67300100  1
  H  901  1  0.17269700  0.72069400  0.58838200  1
  H  902  1  0.12637400  0.67936500  0.55860200  1
  H  903  1  0.10563900  0.78218100  0.63015800  1
  H  904  1  0.01496400  0.78221200  0.63017500  1
  H  907  1  0.99715400  0.67712500  0.55937900  1
  H  908  1  0.94838700  0.71909800  0.58716700  1
  H  910  1  0.05826600  0.61464100  0.60079700  1
  H  911  1  0.06255900  0.61451300  0.65900200  1
  H  913  1  0.94800600  0.72052400  0.67182800  1
  H  914  1  0.99435800  0.67912500  0.70150900  1
  H  919  1  0.12450900  0.33014800  0.55908000  1
  H  920  1  0.17339000  0.28801400  0.58655200  1
  H  923  1  0.17400400  0.28618800  0.67097500  1
  H  924  1  0.12790700  0.32762500  0.70073500  1
  H  925  1  0.10685900  0.22395800  0.62949700  1
  H  926  1  0.01627300  0.22398500  0.62956100  1
  H  929  1  0.99845600  0.32996300  0.70004800  1
  H  930  1  0.94966600  0.28778200  0.67256900  1
  H  932  1  0.05925300  0.39227400  0.65875000  1
  H  933  1  0.06341700  0.39233600  0.60054400  1
  H  935  1  0.94905400  0.28618600  0.58809000  1
  H  936  1  0.99509400  0.32774200  0.55844600  1
  H  956  1  0.22165300  0.13623700  0.56899000  1
  H  957  1  0.28763000  0.06747800  0.57009000  1
  H  958  1  0.23640400  0.04130700  0.43711600  1
  H  959  1  0.16919400  0.10918300  0.43548600  1
  H  960  1  0.23537100  0.96736200  0.57285600  1
  H  961  1  0.16737400  0.89981500  0.57429100  1
  H  962  1  0.38785700  0.00051300  0.43540300  1
  H  963  1  0.50967700  0.99895900  0.43516700  1
  H  964  1  0.50949900  0.00961800  0.57521700  1
  H  965  1  0.38769900  0.00769600  0.57488200  1
  H  966  1  0.28733900  0.94088100  0.44006500  1
  H  967  1  0.22053300  0.87245100  0.44097900  1
  H  987  1  0.89940000  0.87236500  0.44104500  1
  H  988  1  0.83278800  0.94112700  0.44020200  1
  H  989  1  0.88664800  0.96789500  0.57262000  1
  H  990  1  0.95359200  0.89993900  0.57419100  1
  H  991  1  0.88746200  0.04076500  0.43774700  1
  H  992  1  0.95525800  0.10835600  0.43604700  1
  H  993  1  0.73349800  0.97048400  0.56689100  1
  H  994  1  0.61181600  0.96851100  0.56634300  1
  H  995  1  0.61160600  0.04048000  0.44411700  1
  H  996  1  0.73332400  0.03886600  0.44358900  1
  H  997  1  0.83316800  0.06846900  0.56990400  1
  H  998  1  0.90054600  0.13687900  0.56889400  1
  H  1018  1  0.22277700  0.63601000  0.69369800  1
  H  1019  1  0.29045800  0.56767000  0.69416600  1
  H  1020  1  0.23335300  0.53963800  0.56256400  1
  H  1021  1  0.16509400  0.60702300  0.56150800  1
  H  1022  1  0.23382900  0.46765700  0.69673300  1
  H  1023  1  0.16604100  0.40004400  0.69797200  1
  H  1024  1  0.38861700  0.52817500  0.56385300  1
  H  1025  1  0.51084800  0.52896100  0.56388900  1
  H  1026  1  0.51058700  0.47838000  0.69555700  1
  H  1027  1  0.38837400  0.47936600  0.69546800  1
  H  1028  1  0.29076900  0.43957700  0.56510500  1
  H  1029  1  0.22357100  0.37102600  0.56573900  1
  H  1049  1  0.89924800  0.37073800  0.69356500  1
  H  1050  1  0.83161400  0.43909900  0.69426600  1
  H  1051  1  0.88834000  0.46744300  0.56267000  1
  H  1052  1  0.95654600  0.40004700  0.56137500  1
  H  1053  1  0.88788600  0.53924700  0.69706500  1
  H  1054  1  0.95562200  0.60687400  0.69839000  1
  H  1055  1  0.73338600  0.47927300  0.56386900  1
  H  1056  1  0.61115600  0.47861500  0.56378000  1
  H  1057  1  0.61121200  0.52836500  0.69574000  1
  H  1058  1  0.73342600  0.52726800  0.69576000  1
  H  1059  1  0.83137800  0.56730300  0.56535700  1
  H  1060  1  0.89852600  0.63586200  0.56609400  1
  H  1277  1  0.12634300  0.18022300  0.82630900  1
  H  1278  1  0.17341600  0.22155800  0.79701400  1
  H  1281  1  0.17315100  0.22172800  0.96240400  1
  H  1282  1  0.12494400  0.17951900  0.93451700  1
  H  1283  1  0.10646300  0.28357300  0.75486600  1
  H  1284  1  0.01586900  0.28345600  0.75426400  1
  H  1287  1  0.99780800  0.17915300  0.93428800  1
  H  1288  1  0.94903400  0.22134500  0.96178000  1
  H  1290  1  0.06139300  0.11706700  0.97597800  1
  H  1291  1  0.06146000  0.11555200  0.78420100  1
  H  1293  1  0.94886000  0.22144100  0.79645600  1
  H  1294  1  0.99566000  0.18027200  0.82613600  1
  H  1299  1  0.12639400  0.82941800  0.93334100  1
  H  1300  1  0.17344300  0.78808200  0.96264700  1
  H  1303  1  0.17316900  0.78791600  0.79723300  1
  H  1304  1  0.12497700  0.83012800  0.82512700  1
  H  1305  1  0.10572900  0.72429000  0.75475900  1
  H  1306  1  0.01510300  0.72462900  0.75540700  1
  H  1309  1  0.99783200  0.83050800  0.82536300  1
  H  1310  1  0.94905400  0.78831700  0.79787400  1
  H  1312  1  0.06143300  0.89258400  0.78367300  1
  H  1313  1  0.06151000  0.89410000  0.97545300  1
  H  1315  1  0.94888400  0.78822700  0.96317800  1
  H  1316  1  0.99571200  0.82939400  0.93351100  1
  H  1321  1  0.12419600  0.67859900  0.95083400  1
  H  1322  1  0.17295000  0.72054400  0.92302300  1
  H  1325  1  0.17353800  0.72191200  0.83861700  1
  H  1326  1  0.12745700  0.68037800  0.80899600  1
  H  1327  1  0.10621700  0.78402900  0.87960600  1
  H  1328  1  0.01559900  0.78391400  0.87958600  1
  H  1331  1  0.99815000  0.67791000  0.80971700  1
  H  1332  1  0.94923500  0.72019200  0.83697600  1
  H  1334  1  0.05890400  0.61581400  0.85141300  1
  H  1335  1  0.06309500  0.61611900  0.90962200  1
  H  1337  1  0.94860800  0.72222000  0.92162500  1
  H  1338  1  0.99477600  0.68091800  0.95155400  1
  H  1343  1  0.12411100  0.33108400  0.80881000  1
  H  1344  1  0.17290400  0.28914900  0.83661100  1
  H  1347  1  0.17350300  0.28778100  0.92104000  1
  H  1348  1  0.12738500  0.32930200  0.95065400  1
  H  1349  1  0.10627900  0.22566100  0.88004100  1
  H  1350  1  0.01566000  0.22570600  0.88006400  1
  H  1353  1  0.99807400  0.33172300  0.94993000  1
  H  1354  1  0.94919600  0.28942400  0.92266400  1
  H  1356  1  0.05878600  0.39383800  0.90823400  1
  H  1357  1  0.06297800  0.39353700  0.85002800  1
  H  1359  1  0.94856500  0.28739000  0.83804300  1
  H  1360  1  0.99468400  0.32870500  0.80809900  1
  H  1380  1  0.22137700  0.13570300  0.69028700  1
  H  1381  1  0.28765500  0.06705200  0.68948000  1
  H  1382  1  0.23614700  0.04124300  0.82246700  1
  H  1383  1  0.16867200  0.10899800  0.82380200  1
  H  1384  1  0.23596400  0.96668700  0.68703200  1
  H  1385  1  0.16836100  0.89898700  0.68577000  1
  H  1386  1  0.38797000  0.00072400  0.82446600  1
  H  1387  1  0.50978300  0.99905500  0.82475500  1
  H  1388  1  0.50976900  0.00900100  0.68466100  1
  H  1389  1  0.38795900  0.00721800  0.68495700  1
  H  1390  1  0.28752900  0.94095700  0.82001600  1
  H  1391  1  0.22111100  0.87235000  0.81928200  1
  H  1411  1  0.90043800  0.87227400  0.81943800  1
  H  1412  1  0.83340200  0.94089800  0.82003200  1
  H  1413  1  0.88722000  0.96731700  0.68754400  1
  H  1414  1  0.95455800  0.89956500  0.68623800  1
  H  1415  1  0.88726600  0.04092900  0.82201800  1
  H  1416  1  0.95476800  0.10862100  0.82336700  1
  H  1417  1  0.73370200  0.96966700  0.69323600  1
  H  1418  1  0.61200000  0.96782900  0.69375400  1
  H  1419  1  0.61187600  0.04036300  0.81566800  1
  H  1420  1  0.73358400  0.03863900  0.81622600  1
  H  1421  1  0.83350400  0.06751100  0.68956000  1
  H  1422  1  0.90066800  0.13605400  0.69021000  1
  H  1442  1  0.22301100  0.63711400  0.94414500  1
  H  1443  1  0.29061500  0.56868400  0.94458700  1
  H  1444  1  0.23375100  0.54088800  0.81289500  1
  H  1445  1  0.16561200  0.60825200  0.81188600  1
  H  1446  1  0.23369500  0.46880600  0.94675200  1
  H  1447  1  0.16544800  0.40146200  0.94777500  1
  H  1448  1  0.38867600  0.52926500  0.81403100  1
  H  1449  1  0.51089900  0.53016100  0.81400400  1
  H  1450  1  0.51090900  0.47949700  0.94564300  1
  H  1451  1  0.38868500  0.48036200  0.94561300  1
  H  1452  1  0.29068800  0.44086400  0.81510700  1
  H  1453  1  0.22301900  0.37247200  0.81554900  1
  H  1473  1  0.89879200  0.37214000  0.94333500  1
  H  1474  1  0.83160400  0.44065300  0.94413800  1
  H  1475  1  0.88818200  0.46892000  0.81249300  1
  H  1476  1  0.95595400  0.40126200  0.81107200  1
  H  1477  1  0.88820800  0.54070700  0.94717400  1
  H  1478  1  0.95604600  0.60835200  0.94859500  1
  H  1479  1  0.73360000  0.48092700  0.81384800  1
  H  1480  1  0.61138200  0.48003700  0.81381500  1
  H  1481  1  0.61137000  0.52962100  0.94583200  1
  H  1482  1  0.73359400  0.52874200  0.94580200  1
  H  1483  1  0.83162400  0.56903000  0.81553500  1
  H  1484  1  0.89885800  0.63751200  0.81634900  1
  N  89  1  0.30395600  0.00569600  0.00494800  1
  N  120  1  0.81814000  0.00546800  0.00487900  1
  N  151  1  0.30439000  0.50591100  0.13007200  1
  N  182  1  0.81753200  0.50643700  0.12982900  1
  N  513  1  0.30381100  0.00551400  0.25452700  1
  N  544  1  0.81789000  0.00497900  0.25446700  1
  N  575  1  0.30377200  0.50480600  0.37983100  1
  N  606  1  0.81769200  0.50483000  0.37981400  1
  N  937  1  0.30379600  0.00414000  0.50510900  1
  N  968  1  0.81787600  0.00466300  0.50518500  1
  N  999  1  0.30437400  0.50370500  0.62957100  1
  N  1030  1  0.81751800  0.50321700  0.62983000  1
  N  1361  1  0.30395100  0.00395600  0.75471000  1
  N  1392  1  0.81813600  0.00417400  0.75476300  1
  N  1423  1  0.30457300  0.50480900  0.87981900  1
  N  1454  1  0.81772200  0.50482600  0.87982900  1
