# generated using pymatgen
data_H11C20(N2O3)2
_symmetry_space_group_name_H-M   'P 1'
_cell_length_a   43.77380000
_cell_length_b   43.77380000
_cell_length_c   53.92080000
_cell_angle_alpha   90.00000000
_cell_angle_beta   90.00000000
_cell_angle_gamma   90.00000000
_symmetry_Int_Tables_number   1
_chemical_formula_structural   H11C20(N2O3)2
_chemical_formula_sum   'H352 C640 N128 O192'
_cell_volume   103320.10185890
_cell_formula_units_Z   32
loop_
 _symmetry_equiv_pos_site_id
 _symmetry_equiv_pos_as_xyz
  1  'x, y, z'
loop_
 _atom_site_type_symbol
 _atom_site_label
 _atom_site_symmetry_multiplicity
 _atom_site_fract_x
 _atom_site_fract_y
 _atom_site_fract_z
 _atom_site_occupancy
  H  7  1  0.09011600  0.28152000  0.13801200  1
  H  16  1  0.01529800  0.27870100  0.09082600  1
  H  19  1  0.05985400  0.33490600  0.06369400  1
  H  20  1  0.12478100  0.28013400  0.07915700  1
  H  21  1  0.09216400  0.39474300  0.14332200  1
  H  22  1  0.05245900  0.20804300  0.02863500  1
  H  33  1  0.93184800  0.74046400  0.13724200  1
  H  42  1  0.00698400  0.74358500  0.09043400  1
  H  45  1  0.96315200  0.68700500  0.06350100  1
  H  46  1  0.89754000  0.74124800  0.07855900  1
  H  47  1  0.93284400  0.62750100  0.14514600  1
  H  48  1  0.96946400  0.81378000  0.02800100  1
  H  59  1  0.28199300  0.93162000  0.88316200  1
  H  68  1  0.27910300  0.00646400  0.93040900  1
  H  71  1  0.33533800  0.96191000  0.95750500  1
  H  72  1  0.28064500  0.89695500  0.94198000  1
  H  73  1  0.39522300  0.92942000  0.87797100  1
  H  74  1  0.20823400  0.96916700  0.99238000  1
  H  85  1  0.74050700  0.09027200  0.88326600  1
  H  94  1  0.74381100  0.01507700  0.93006300  1
  H  97  1  0.68740900  0.05898400  0.95717800  1
  H  98  1  0.74152400  0.12451500  0.94208000  1
  H  99  1  0.62744200  0.08900200  0.87571100  1
  H  100  1  0.81359000  0.05249000  0.99282700  1
  H  111  1  0.59238700  0.23870700  0.63643000  1
  H  120  1  0.51576300  0.24116700  0.59042400  1
  H  123  1  0.55969100  0.18576500  0.56268700  1
  H  124  1  0.62515100  0.24142500  0.57782200  1
  H  125  1  0.56384900  0.13678800  0.66072300  1
  H  126  1  0.55112900  0.31305300  0.52836600  1
  H  137  1  0.42900800  0.78175800  0.63657800  1
  H  146  1  0.50574100  0.77752700  0.59094100  1
  H  149  1  0.46353800  0.83380800  0.56306700  1
  H  150  1  0.39655900  0.78010700  0.57768500  1
  H  151  1  0.42603100  0.89242700  0.64427900  1
  H  152  1  0.46913300  0.70660400  0.52871100  1
  H  163  1  0.78323200  0.59465800  0.38433200  1
  H  172  1  0.78144300  0.51710900  0.42746200  1
  H  175  1  0.83568300  0.56150500  0.45823000  1
  H  176  1  0.77971100  0.62541600  0.44552400  1
  H  177  1  0.88549400  0.56684400  0.36044200  1
  H  178  1  0.70930400  0.54847000  0.49174200  1
  H  189  1  0.23937900  0.42842600  0.38482400  1
  H  198  1  0.24336300  0.50516100  0.43049600  1
  H  201  1  0.18725600  0.46294200  0.45828200  1
  H  202  1  0.24117900  0.39593400  0.44359900  1
  H  203  1  0.12869400  0.42570200  0.37694000  1
  H  204  1  0.31398500  0.46861200  0.49299500  1
  H  215  1  0.06449600  0.44028700  0.09125200  1
  H  222  1  0.99552100  0.58986200  0.13163000  1
  H  223  1  0.99678000  0.58152900  0.05370200  1
  H  224  1  0.97602300  0.43207600  0.12150300  1
  H  225  1  0.00573700  0.52792800  0.05759700  1
  H  226  1  0.96742700  0.48512800  0.11456300  1
  H  235  1  0.01564300  0.39277600  0.12866900  1
  H  236  1  0.99443400  0.63282000  0.07409500  1
  H  243  1  0.44072700  0.95724000  0.93001100  1
  H  250  1  0.59010200  0.02621900  0.88935300  1
  H  251  1  0.58205000  0.02521800  0.96730400  1
  H  252  1  0.43241400  0.04570500  0.89976400  1
  H  253  1  0.52844200  0.01617800  0.96355400  1
  H  254  1  0.48546200  0.05434300  0.90666000  1
  H  263  1  0.39315800  0.00608900  0.89261100  1
  H  264  1  0.63327000  0.02755700  0.94676300  1
  H  271  1  0.56537100  0.07998400  0.59032200  1
  H  278  1  0.49491300  0.93133200  0.63098500  1
  H  279  1  0.49657100  0.93932300  0.55303200  1
  H  280  1  0.47679700  0.08930500  0.62019300  1
  H  281  1  0.50590600  0.99288200  0.55680600  1
  H  282  1  0.46772300  0.03628500  0.61347800  1
  H  291  1  0.51628600  0.12860800  0.62687500  1
  H  292  1  0.49457500  0.88800200  0.57386400  1
  H  299  1  0.94221500  0.56715300  0.43078800  1
  H  306  1  0.09008500  0.49504300  0.39020900  1
  H  307  1  0.08183200  0.49647500  0.46815000  1
  H  308  1  0.93180900  0.47888000  0.40056900  1
  H  309  1  0.02839200  0.50640800  0.46427600  1
  H  310  1  0.98467900  0.46906200  0.40734900  1
  H  319  1  0.89290000  0.51872400  0.39414700  1
  H  320  1  0.13317200  0.49402400  0.44746400  1
  H  327  1  0.11994300  0.30749900  0.21474800  1
  H  334  1  0.15489500  0.42585800  0.31670200  1
  H  335  1  0.22285700  0.35819400  0.30999900  1
  H  336  1  0.14956300  0.39379100  0.18985800  1
  H  337  1  0.20064100  0.34164300  0.27188800  1
  H  338  1  0.16611300  0.40632300  0.23050700  1
  H  347  1  0.13426600  0.35505500  0.16036900  1
  H  348  1  0.22611600  0.39719900  0.34365400  1
  H  355  1  0.90336500  0.71494700  0.21415900  1
  H  362  1  0.86735100  0.59787400  0.31649600  1
  H  363  1  0.79967800  0.66582100  0.30962500  1
  H  364  1  0.87247000  0.62893200  0.18960800  1
  H  365  1  0.82189900  0.68201800  0.27139100  1
  H  366  1  0.85565000  0.61694500  0.23029000  1
  H  375  1  0.88903300  0.66678100  0.16002100  1
  H  376  1  0.79605700  0.62626300  0.34309000  1
  H  383  1  0.30795200  0.90159700  0.80650900  1
  H  390  1  0.42631700  0.86641900  0.70458900  1
  H  391  1  0.35863500  0.79849000  0.71137100  1
  H  392  1  0.39424100  0.87199900  0.83142200  1
  H  393  1  0.34207200  0.82079300  0.74944600  1
  H  394  1  0.40676200  0.85537800  0.79079200  1
  H  403  1  0.35548900  0.88733500  0.86091100  1
  H  404  1  0.39761500  0.79515400  0.67771300  1
  H  411  1  0.71434800  0.11890800  0.80620500  1
  H  418  1  0.59612200  0.15429800  0.70436500  1
  H  419  1  0.66386100  0.22219700  0.71094700  1
  H  420  1  0.62815000  0.14884000  0.83107500  1
  H  421  1  0.68047600  0.19996700  0.74904900  1
  H  422  1  0.61577100  0.16560600  0.79046500  1
  H  431  1  0.66632600  0.13276700  0.86052900  1
  H  432  1  0.62436000  0.22565100  0.67754600  1
  H  439  1  0.18239100  0.05626500  0.96098600  1
  H  446  1  0.15594900  0.20439300  0.03154800  1
  H  447  1  0.11864600  0.12588200  0.06522200  1
  H  448  1  0.26254500  0.08763300  0.99597600  1
  H  449  1  0.15054600  0.09435900  0.04047600  1
  H  450  1  0.23292300  0.12233500  0.02028200  1
  H  459  1  0.26512000  0.04955800  0.96206300  1
  H  460  1  0.09778800  0.17472000  0.07483100  1
  H  467  1  0.83985000  0.96476500  0.96013400  1
  H  474  1  0.86565100  0.81720900  0.03136200  1
  H  475  1  0.90350500  0.89566400  0.06473300  1
  H  476  1  0.75967900  0.93457400  0.99578300  1
  H  477  1  0.87169800  0.92725900  0.03996200  1
  H  478  1  0.78916000  0.89987700  0.02020500  1
  H  487  1  0.75726400  0.97199800  0.96170200  1
  H  488  1  0.92384100  0.84673100  0.07470500  1
  H  495  1  0.05719700  0.83977000  0.06036200  1
  H  502  1  0.20487500  0.86562600  0.98931200  1
  H  503  1  0.12639400  0.90310000  0.95569800  1
  H  504  1  0.08758500  0.75954200  0.02490100  1
  H  505  1  0.09482900  0.87135800  0.98054800  1
  H  506  1  0.12234800  0.78900200  0.00052000  1
  H  515  1  0.05006200  0.75720200  0.05895100  1
  H  516  1  0.17529400  0.92368800  0.94588400  1
  H  523  1  0.96506000  0.18213300  0.06093400  1
  H  530  1  0.81733200  0.15606500  0.98980000  1
  H  531  1  0.89584700  0.11847300  0.95633800  1
  H  532  1  0.93438200  0.26225300  0.02549100  1
  H  533  1  0.92738900  0.15023800  0.98118400  1
  H  534  1  0.89973500  0.23267800  0.00110000  1
  H  543  1  0.97213000  0.26482300  0.05947200  1
  H  544  1  0.84697800  0.09797100  0.94642700  1
  H  551  1  0.68429800  0.47162000  0.46599500  1
  H  558  1  0.65749000  0.31960900  0.53408400  1
  H  559  1  0.61154700  0.39604100  0.56368200  1
  H  560  1  0.75875100  0.44479600  0.51054700  1
  H  561  1  0.64308400  0.42918200  0.54007200  1
  H  562  1  0.72790900  0.40648500  0.52951900  1
  H  571  1  0.75742600  0.49541300  0.48849600  1
  H  572  1  0.59591200  0.34613900  0.57558900  1
  H  579  1  0.33944300  0.55620300  0.46010800  1
  H  586  1  0.36451700  0.70379600  0.53156700  1
  H  587  1  0.40281400  0.62544500  0.56476900  1
  H  588  1  0.25920500  0.58586200  0.49595300  1
  H  589  1  0.37121600  0.59375100  0.53990900  1
  H  590  1  0.28854700  0.62072800  0.52032300  1
  H  599  1  0.25688900  0.54840200  0.46193700  1
  H  600  1  0.42241700  0.67451600  0.57527700  1
  H  607  1  0.55650200  0.68098300  0.56240800  1
  H  614  1  0.70423700  0.65399400  0.49094400  1
  H  615  1  0.62583400  0.61350700  0.45961100  1
  H  616  1  0.58648400  0.75995300  0.52494200  1
  H  617  1  0.59416600  0.64583900  0.48386400  1
  H  618  1  0.62128100  0.72973200  0.50122800  1
  H  627  1  0.54904300  0.76346000  0.55901500  1
  H  628  1  0.67506000  0.59456400  0.44854900  1
  H  635  1  0.46452000  0.33779400  0.56137000  1
  H  642  1  0.31716000  0.36431000  0.49004500  1
  H  643  1  0.39569600  0.40221600  0.45683100  1
  H  644  1  0.43406100  0.25794400  0.52538400  1
  H  645  1  0.42723100  0.37029700  0.48157100  1
  H  646  1  0.39956800  0.28771800  0.50100900  1
  H  655  1  0.47171200  0.25512100  0.55943600  1
  H  656  1  0.34671500  0.42236000  0.44661300  1
  H  663  1  0.18149500  0.30436500  0.58310900  1
  H  672  1  0.10667700  0.30154600  0.53592300  1
  H  675  1  0.15123300  0.35775100  0.50879100  1
  H  676  1  0.21616000  0.30297900  0.52425400  1
  H  677  1  0.18354300  0.41758800  0.58841900  1
  H  678  1  0.14383800  0.23088800  0.47373200  1
  H  689  1  0.02322690  0.76330900  0.58233900  1
  H  698  1  0.09836290  0.76643000  0.53553100  1
  H  701  1  0.05453090  0.70985000  0.50859800  1
  H  702  1  0.98891900  0.76409300  0.52365600  1
  H  703  1  0.02422290  0.65034600  0.59024300  1
  H  704  1  0.06084290  0.83662500  0.47309800  1
  H  715  1  0.37337200  0.95446500  0.32825900  1
  H  724  1  0.37048200  0.02930870  0.37550600  1
  H  727  1  0.42671700  0.98475500  0.40260200  1
  H  728  1  0.37202400  0.91980000  0.38707700  1
  H  729  1  0.48660200  0.95226500  0.32306800  1
  H  730  1  0.29961300  0.99201200  0.43747700  1
  H  741  1  0.83188600  0.11311700  0.32836300  1
  H  750  1  0.83519000  0.03792170  0.37516000  1
  H  753  1  0.77878800  0.08182870  0.40227500  1
  H  754  1  0.83290300  0.14736000  0.38717700  1
  H  755  1  0.71882100  0.11184700  0.32080800  1
  H  756  1  0.90496900  0.07533470  0.43792400  1
  H  767  1  0.68376600  0.26155200  0.08152730  1
  H  776  1  0.60714200  0.26401200  0.03552130  1
  H  779  1  0.65107000  0.20861000  0.00778425  1
  H  780  1  0.71653000  0.26427000  0.02291930  1
  H  781  1  0.65522800  0.15963300  0.10582000  1
  H  782  1  0.64250800  0.33589800  0.97346300  1
  H  793  1  0.52038700  0.80460300  0.08167530  1
  H  802  1  0.59712000  0.80037200  0.03603830  1
  H  805  1  0.55491700  0.85665300  0.00816425  1
  H  806  1  0.48793800  0.80295200  0.02278230  1
  H  807  1  0.51741000  0.91527200  0.08937630  1
  H  808  1  0.56051200  0.72944900  0.97380800  1
  H  819  1  0.87461100  0.61750300  0.82942900  1
  H  828  1  0.87282200  0.53995400  0.87255900  1
  H  831  1  0.92706200  0.58435000  0.90332700  1
  H  832  1  0.87109000  0.64826100  0.89062100  1
  H  833  1  0.97687300  0.58968900  0.80553900  1
  H  834  1  0.80068300  0.57131500  0.93683900  1
  H  845  1  0.33075800  0.45127100  0.82992100  1
  H  854  1  0.33474200  0.52800600  0.87559300  1
  H  857  1  0.27863500  0.48578700  0.90337900  1
  H  858  1  0.33255800  0.41877900  0.88869600  1
  H  859  1  0.22007300  0.44854700  0.82203700  1
  H  860  1  0.40536400  0.49145700  0.93809200  1
  H  871  1  0.15587500  0.46313200  0.53634900  1
  H  878  1  0.08689990  0.61270700  0.57672700  1
  H  879  1  0.08815890  0.60437400  0.49879900  1
  H  880  1  0.06740190  0.45492100  0.56660000  1
  H  881  1  0.09711590  0.55077300  0.50269400  1
  H  882  1  0.05880590  0.50797300  0.55966000  1
  H  891  1  0.10702200  0.41562100  0.57376600  1
  H  892  1  0.08581290  0.65566500  0.51919200  1
  H  899  1  0.53210600  0.98008500  0.37510800  1
  H  906  1  0.68148100  0.04906370  0.33445000  1
  H  907  1  0.67342900  0.04806270  0.41240100  1
  H  908  1  0.52379300  0.06854970  0.34486100  1
  H  909  1  0.61982100  0.03902270  0.40865100  1
  H  910  1  0.57684100  0.07718770  0.35175700  1
  H  919  1  0.48453700  0.02893370  0.33770800  1
  H  920  1  0.72464900  0.05040170  0.39186000  1
  H  927  1  0.65675000  0.10282900  0.03541930  1
  H  934  1  0.58629200  0.95417700  0.07608230  1
  H  935  1  0.58795000  0.96216800  0.99812900  1
  H  936  1  0.56817600  0.11215000  0.06529030  1
  H  937  1  0.59728500  0.01572670  0.00190325  1
  H  938  1  0.55910200  0.05912970  0.05857530  1
  H  947  1  0.60766500  0.15145300  0.07197230  1
  H  948  1  0.58595400  0.91084700  0.01896130  1
  H  955  1  0.03359390  0.58999800  0.87588500  1
  H  962  1  0.18146400  0.51788800  0.83530600  1
  H  963  1  0.17321100  0.51932000  0.91324700  1
  H  964  1  0.02318790  0.50172500  0.84566600  1
  H  965  1  0.11977100  0.52925300  0.90937300  1
  H  966  1  0.07605790  0.49190700  0.85244600  1
  H  975  1  0.98427900  0.54156900  0.83924400  1
  H  976  1  0.22455100  0.51686900  0.89256100  1
  H  983  1  0.21132200  0.33034400  0.65984500  1
  H  990  1  0.24627400  0.44870300  0.76179900  1
  H  991  1  0.31423600  0.38103900  0.75509600  1
  H  992  1  0.24094200  0.41663600  0.63495500  1
  H  993  1  0.29202000  0.36448800  0.71698500  1
  H  994  1  0.25749200  0.42916800  0.67560400  1
  H  1003  1  0.22564500  0.37790000  0.60546600  1
  H  1004  1  0.31749500  0.42004400  0.78875100  1
  H  1011  1  0.99474400  0.73779200  0.65925600  1
  H  1018  1  0.95873000  0.62071900  0.76159300  1
  H  1019  1  0.89105700  0.68866600  0.75472200  1
  H  1020  1  0.96384900  0.65177700  0.63470500  1
  H  1021  1  0.91327800  0.70486300  0.71648800  1
  H  1022  1  0.94702900  0.63979000  0.67538700  1
  H  1031  1  0.98041200  0.68962600  0.60511800  1
  H  1032  1  0.88743600  0.64910800  0.78818700  1
  H  1039  1  0.39933100  0.92444200  0.25160600  1
  H  1046  1  0.51769600  0.88926400  0.14968600  1
  H  1047  1  0.45001400  0.82133500  0.15646800  1
  H  1048  1  0.48562000  0.89484400  0.27651900  1
  H  1049  1  0.43345100  0.84363800  0.19454300  1
  H  1050  1  0.49814100  0.87822300  0.23588900  1
  H  1059  1  0.44686800  0.91018000  0.30600800  1
  H  1060  1  0.48899400  0.81799900  0.12281000  1
  H  1067  1  0.80572700  0.14175300  0.25130200  1
  H  1074  1  0.68750100  0.17714300  0.14946200  1
  H  1075  1  0.75524000  0.24504200  0.15604400  1
  H  1076  1  0.71952900  0.17168500  0.27617200  1
  H  1077  1  0.77185500  0.22281200  0.19414600  1
  H  1078  1  0.70715000  0.18845100  0.23556200  1
  H  1087  1  0.75770500  0.15561200  0.30562600  1
  H  1088  1  0.71573900  0.24849600  0.12264300  1
  H  1095  1  0.27377000  0.07910970  0.40608300  1
  H  1102  1  0.24732800  0.22723800  0.47664500  1
  H  1103  1  0.21002500  0.14872700  0.51031900  1
  H  1104  1  0.35392400  0.11047800  0.44107300  1
  H  1105  1  0.24192500  0.11720400  0.48557300  1
  H  1106  1  0.32430200  0.14518000  0.46537900  1
  H  1115  1  0.35649900  0.07240270  0.40716000  1
  H  1116  1  0.18916700  0.19756500  0.51992800  1
  H  1123  1  0.93122900  0.98761000  0.40523100  1
  H  1130  1  0.95703000  0.84005400  0.47645900  1
  H  1131  1  0.99488400  0.91850900  0.50983000  1
  H  1132  1  0.85105800  0.95741900  0.44088000  1
  H  1133  1  0.96307700  0.95010400  0.48505900  1
  H  1134  1  0.88053900  0.92272200  0.46530200  1
  H  1143  1  0.84864300  0.99484300  0.40679900  1
  H  1144  1  0.01521990  0.86957600  0.51980200  1
  H  1151  1  0.14857600  0.86261500  0.50545900  1
  H  1158  1  0.29625400  0.88847100  0.43440900  1
  H  1159  1  0.21777300  0.92594500  0.40079500  1
  H  1160  1  0.17896400  0.78238700  0.46999800  1
  H  1161  1  0.18620800  0.89420300  0.42564500  1
  H  1162  1  0.21372700  0.81184700  0.44561700  1
  H  1171  1  0.14144100  0.78004700  0.50404800  1
  H  1172  1  0.26667300  0.94653300  0.39098100  1
  H  1179  1  0.05643890  0.20497800  0.50603100  1
  H  1186  1  0.90871100  0.17891000  0.43489700  1
  H  1187  1  0.98722600  0.14131800  0.40143500  1
  H  1188  1  0.02576090  0.28509800  0.47058800  1
  H  1189  1  0.01876790  0.17308300  0.42628100  1
  H  1190  1  0.99111400  0.25552300  0.44619700  1
  H  1199  1  0.06350890  0.28766800  0.50456900  1
  H  1200  1  0.93835700  0.12081600  0.39152400  1
  H  1207  1  0.77567700  0.49446500  0.91109200  1
  H  1214  1  0.74886900  0.34245400  0.97918100  1
  H  1215  1  0.70292600  0.41888600  0.00877925  1
  H  1216  1  0.85013000  0.46764100  0.95564400  1
  H  1217  1  0.73446300  0.45202700  0.98516900  1
  H  1218  1  0.81928800  0.42933000  0.97461600  1
  H  1227  1  0.84880500  0.51825800  0.93359300  1
  H  1228  1  0.68729100  0.36898400  0.02068630  1
  H  1235  1  0.43082200  0.57904800  0.90520500  1
  H  1242  1  0.45589600  0.72664100  0.97666400  1
  H  1243  1  0.49419300  0.64829000  0.00986625  1
  H  1244  1  0.35058400  0.60870700  0.94105000  1
  H  1245  1  0.46259500  0.61659600  0.98500600  1
  H  1246  1  0.37992600  0.64357300  0.96542000  1
  H  1255  1  0.34826800  0.57124700  0.90703400  1
  H  1256  1  0.51379600  0.69736100  0.02037430  1
  H  1263  1  0.64788100  0.70382800  0.00750525  1
  H  1270  1  0.79561600  0.67683900  0.93604100  1
  H  1271  1  0.71721300  0.63635200  0.90470800  1
  H  1272  1  0.67786300  0.78279800  0.97003900  1
  H  1273  1  0.68554500  0.66868400  0.92896100  1
  H  1274  1  0.71266000  0.75257700  0.94632500  1
  H  1283  1  0.64042200  0.78630500  0.00411225  1
  H  1284  1  0.76643900  0.61740900  0.89364600  1
  H  1291  1  0.55589900  0.36063900  0.00646725  1
  H  1298  1  0.40853900  0.38715500  0.93514200  1
  H  1299  1  0.48707500  0.42506100  0.90192800  1
  H  1300  1  0.52544000  0.28078900  0.97048100  1
  H  1301  1  0.51861000  0.39314200  0.92666800  1
  H  1302  1  0.49094700  0.31056300  0.94610600  1
  H  1311  1  0.56309100  0.27796600  0.00453325  1
  H  1312  1  0.43809400  0.44520500  0.89171000  1
  C  1  1  0.06751400  0.30237100  0.10752600  1
  C  2  1  0.08215400  0.30178600  0.13110000  1
  C  3  1  0.08595400  0.32864400  0.14545400  1
  C  4  1  0.07373500  0.35641700  0.13633300  1
  C  5  1  0.05861000  0.35764300  0.11317100  1
  C  6  1  0.05656200  0.33093300  0.09851800  1
  C  9  1  0.06357400  0.27503500  0.09298900  1
  C  10  1  0.08885300  0.25720700  0.08474000  1
  C  11  1  0.08442700  0.23112900  0.06951100  1
  C  12  1  0.05453000  0.22393700  0.06127700  1
  C  13  1  0.02904600  0.24114000  0.06913900  1
  C  14  1  0.03384200  0.26636500  0.08505000  1
  C  27  1  0.95495100  0.71955200  0.10703800  1
  C  28  1  0.94019300  0.72024400  0.13053700  1
  C  29  1  0.93705000  0.69359400  0.14520200  1
  C  30  1  0.94995000  0.66595600  0.13645700  1
  C  31  1  0.96453200  0.66437700  0.11311400  1
  C  32  1  0.96644000  0.69105500  0.09829500  1
  C  35  1  0.95866800  0.74684500  0.09241800  1
  C  36  1  0.93328000  0.76447600  0.08411500  1
  C  37  1  0.93758700  0.79055100  0.06886600  1
  C  38  1  0.96744500  0.79792100  0.06065400  1
  C  39  1  0.99301300  0.78090400  0.06858600  1
  C  40  1  0.98835900  0.75573400  0.08456700  1
  C  53  1  0.30282500  0.95424700  0.91364600  1
  C  54  1  0.30225600  0.93957000  0.89008500  1
  C  55  1  0.32913100  0.93572000  0.87575700  1
  C  56  1  0.35690600  0.94790100  0.88490200  1
  C  57  1  0.35810900  0.96304000  0.90805600  1
  C  58  1  0.33138300  0.96517400  0.92267600  1
  C  61  1  0.27549200  0.95817400  0.92818200  1
  C  62  1  0.25768200  0.93285800  0.93637900  1
  C  63  1  0.23157900  0.93724200  0.95157700  1
  C  64  1  0.22427300  0.96711800  0.95978000  1
  C  65  1  0.24148300  0.99262700  0.95198900  1
  C  66  1  0.26678500  0.98788900  0.93614700  1
  C  79  1  0.71976900  0.06714800  0.91353800  1
  C  80  1  0.72032600  0.08191400  0.89003000  1
  C  81  1  0.69359600  0.08504100  0.87543600  1
  C  82  1  0.66602500  0.07208300  0.88428100  1
  C  83  1  0.66457400  0.05752100  0.90763700  1
  C  84  1  0.69131800  0.05565900  0.92237500  1
  C  87  1  0.74711000  0.06339600  0.92811500  1
  C  88  1  0.76471600  0.08875600  0.93651300  1
  C  89  1  0.79069300  0.08441500  0.95187400  1
  C  90  1  0.79798700  0.05453800  0.96009400  1
  C  91  1  0.78102000  0.02898500  0.95205800  1
  C  92  1  0.75595700  0.03368400  0.93597100  1
  C  105  1  0.56858300  0.21803700  0.60645600  1
  C  106  1  0.58416300  0.21849800  0.62963700  1
  C  107  1  0.58804600  0.19156700  0.64390800  1
  C  108  1  0.57571000  0.16385200  0.63499600  1
  C  109  1  0.56028100  0.16265100  0.61200300  1
  C  110  1  0.55741400  0.18948300  0.59759000  1
  C  113  1  0.56404600  0.24543500  0.59211100  1
  C  114  1  0.58894000  0.26374900  0.58379300  1
  C  115  1  0.58387700  0.28990000  0.56879200  1
  C  116  1  0.55379300  0.29671200  0.56083800  1
  C  117  1  0.52869300  0.27907600  0.56883100  1
  C  118  1  0.53406600  0.25377800  0.58453200  1
  C  131  1  0.45335600  0.80200800  0.60671400  1
  C  132  1  0.43762300  0.80182000  0.62981700  1
  C  133  1  0.43444700  0.82873200  0.64420600  1
  C  134  1  0.44714700  0.85625000  0.63524500  1
  C  135  1  0.46270600  0.85731700  0.61232100  1
  C  136  1  0.46535200  0.83030300  0.59797700  1
  C  139  1  0.45736300  0.77447500  0.59240100  1
  C  140  1  0.43208300  0.75680700  0.58392700  1
  C  141  1  0.43658600  0.73051300  0.56897400  1
  C  142  1  0.46655800  0.72292200  0.56119200  1
  C  143  1  0.49204100  0.73997700  0.56924800  1
  C  144  1  0.48717300  0.76537600  0.58495800  1
  C  157  1  0.80400200  0.57098100  0.41430000  1
  C  158  1  0.80351100  0.58674200  0.39123100  1
  C  159  1  0.83051100  0.59085400  0.37709200  1
  C  160  1  0.85828600  0.57871000  0.38606600  1
  C  161  1  0.85946900  0.56315900  0.40900400  1
  C  162  1  0.83256300  0.55995400  0.42326400  1
  C  165  1  0.77650600  0.56533200  0.42817100  1
  C  166  1  0.75802000  0.58931900  0.43782400  1
  C  167  1  0.73210300  0.58284500  0.45278500  1
  C  168  1  0.72583400  0.55210700  0.45943100  1
  C  169  1  0.74382200  0.52796500  0.45002300  1
  C  170  1  0.76851500  0.53479300  0.43416300  1
  C  183  1  0.21909200  0.45276900  0.41466900  1
  C  184  1  0.21931200  0.43706500  0.39155800  1
  C  185  1  0.19242500  0.43393600  0.37713500  1
  C  186  1  0.16491000  0.44669700  0.38605000  1
  C  187  1  0.16381400  0.46224300  0.40897800  1
  C  188  1  0.19079100  0.46479700  0.42337500  1
  C  191  1  0.24660200  0.45680800  0.42899400  1
  C  192  1  0.26433400  0.43158000  0.43747300  1
  C  193  1  0.29052300  0.43615900  0.45253400  1
  C  194  1  0.29793200  0.46613500  0.46042500  1
  C  195  1  0.28082800  0.49156600  0.45233000  1
  C  196  1  0.25556600  0.48663400  0.43648800  1
  C  209  1  0.02091800  0.43069200  0.10651500  1
  C  210  1  0.99284400  0.44452900  0.11301400  1
  C  211  1  0.98782500  0.47588100  0.10908500  1
  C  212  1  0.01078600  0.49460200  0.09865600  1
  C  213  1  0.03891900  0.48106700  0.09151200  1
  C  214  1  0.04359000  0.44937000  0.09549500  1
  C  216  1  0.00572100  0.52674500  0.09695600  1
  C  217  1  0.00272600  0.54517100  0.11849700  1
  C  218  1  0.99747600  0.57695100  0.11588100  1
  C  219  1  0.99496800  0.59105300  0.09231000  1
  C  220  1  0.99846800  0.57235900  0.07111500  1
  C  221  1  0.00375200  0.54075800  0.07339000  1
  C  233  1  0.98898100  0.62220400  0.08973600  1
  C  234  1  0.02689800  0.40079000  0.11396100  1
  C  237  1  0.43108000  0.00081400  0.91477200  1
  C  238  1  0.44488300  0.02890000  0.90825500  1
  C  239  1  0.47623300  0.03395300  0.91217300  1
  C  240  1  0.49498100  0.01100000  0.92257800  1
  C  241  1  0.48148700  0.98285400  0.92972900  1
  C  242  1  0.44978800  0.97815900  0.92578000  1
  C  244  1  0.52712600  0.01607100  0.92419800  1
  C  245  1  0.54547100  0.01900700  0.90260600  1
  C  246  1  0.57724800  0.02430100  0.90513700  1
  C  247  1  0.59142700  0.02691600  0.92866800  1
  C  248  1  0.57281800  0.02345300  0.94991800  1
  C  249  1  0.54121500  0.01813400  0.94772900  1
  C  261  1  0.62257400  0.03296700  0.93114900  1
  C  262  1  0.40118800  0.99482600  0.90730900  1
  C  265  1  0.52180800  0.09012200  0.60539600  1
  C  266  1  0.49355600  0.07662100  0.61185300  1
  C  267  1  0.48824700  0.04529500  0.60805100  1
  C  268  1  0.51108500  0.02629400  0.59778400  1
  C  269  1  0.53940100  0.03947700  0.59070000  1
  C  270  1  0.54436000  0.07114200  0.59455600  1
  C  272  1  0.50571400  0.99421400  0.59616500  1
  C  273  1  0.50249700  0.97592000  0.61775800  1
  C  274  1  0.49701900  0.94418000  0.61521200  1
  C  275  1  0.49450900  0.93002300  0.59166600  1
  C  276  1  0.49824100  0.94857000  0.57042000  1
  C  277  1  0.50373800  0.98013500  0.57262700  1
  C  289  1  0.48836300  0.89892000  0.58917700  1
  C  290  1  0.52798300  0.12006900  0.61259300  1
  C  293  1  0.93154200  0.52381800  0.41553600  1
  C  294  1  0.94469100  0.49542700  0.40898700  1
  C  295  1  0.97592700  0.48967000  0.41284500  1
  C  296  1  0.99519900  0.51219300  0.42323400  1
  C  297  1  0.98237600  0.54064800  0.43038500  1
  C  298  1  0.95079100  0.54605100  0.42649200  1
  C  300  1  0.02719900  0.50638300  0.42491200  1
  C  301  1  0.04553100  0.50304600  0.40335500  1
  C  302  1  0.07720100  0.49720700  0.40595900  1
  C  303  1  0.09124700  0.49446100  0.42953200  1
  C  304  1  0.07266300  0.49830300  0.45074300  1
  C  305  1  0.04116800  0.50414200  0.44847800  1
  C  317  1  0.12228600  0.48804600  0.43207500  1
  C  318  1  0.90166600  0.53038200  0.40835800  1
  C  321  1  0.13329100  0.34912500  0.19811800  1
  C  322  1  0.14671300  0.37779900  0.20353400  1
  C  323  1  0.15630500  0.38538200  0.22764100  1
  C  324  1  0.15302000  0.36457500  0.24749500  1
  C  325  1  0.13958700  0.33562800  0.24249800  1
  C  326  1  0.12969400  0.32836100  0.21802200  1
  C  328  1  0.16406400  0.37344100  0.27150600  1
  C  329  1  0.15106100  0.39817900  0.28492200  1
  C  330  1  0.16461600  0.40784500  0.30752900  1
  C  331  1  0.19119300  0.39379800  0.31737100  1
  C  332  1  0.20364400  0.36910200  0.30377500  1
  C  333  1  0.19035700  0.35910100  0.28136600  1
  C  345  1  0.20496600  0.40366200  0.33950500  1
  C  346  1  0.12378700  0.34336300  0.17379100  1
  C  349  1  0.88939600  0.67341000  0.19769400  1
  C  350  1  0.87550400  0.64499100  0.20320600  1
  C  351  1  0.86574900  0.63772700  0.22732800  1
  C  352  1  0.86935200  0.65862300  0.24707700  1
  C  353  1  0.88322100  0.68733200  0.24199200  1
  C  354  1  0.89325900  0.69427200  0.21750200  1
  C  356  1  0.85831800  0.65003300  0.27112900  1
  C  357  1  0.87127100  0.62534500  0.28462300  1
  C  358  1  0.85772800  0.61590800  0.30728400  1
  C  359  1  0.83124200  0.63016100  0.31708900  1
  C  360  1  0.81884000  0.65480500  0.30341700  1
  C  361  1  0.83211000  0.66457400  0.28094000  1
  C  373  1  0.81746200  0.62040600  0.33922400  1
  C  374  1  0.89922100  0.67880400  0.17340100  1
  C  377  1  0.34958200  0.88827900  0.82315000  1
  C  378  1  0.37824700  0.87483700  0.81774400  1
  C  379  1  0.38582200  0.86519900  0.79364800  1
  C  380  1  0.36501500  0.86845200  0.77379100  1
  C  381  1  0.33607100  0.88190300  0.77877800  1
  C  382  1  0.32881300  0.89184000  0.80324500  1
  C  384  1  0.37387900  0.85736300  0.74978700  1
  C  385  1  0.39862500  0.87033000  0.73635800  1
  C  386  1  0.40829700  0.85672300  0.71376900  1
  C  387  1  0.39425200  0.83012700  0.70396100  1
  C  388  1  0.36954600  0.81771800  0.71756900  1
  C  389  1  0.35953500  0.83105500  0.73995600  1
  C  401  1  0.40413700  0.81628600  0.68185400  1
  C  402  1  0.34381800  0.89780000  0.84747500  1
  C  405  1  0.67276100  0.13238800  0.82283900  1
  C  406  1  0.64416700  0.14598300  0.81742000  1
  C  407  1  0.63666900  0.15570600  0.79333200  1
  C  408  1  0.65748500  0.15238000  0.77349000  1
  C  409  1  0.68636500  0.13880700  0.77848500  1
  C  410  1  0.69354300  0.12878600  0.80294300  1
  C  412  1  0.64864200  0.16342500  0.74947500  1
  C  413  1  0.62388100  0.15042600  0.73608700  1
  C  414  1  0.61419000  0.16397700  0.71348700  1
  C  415  1  0.62823500  0.19054300  0.70362700  1
  C  416  1  0.65296600  0.20298300  0.71718500  1
  C  417  1  0.66298800  0.18970100  0.73959200  1
  C  429  1  0.61824700  0.20435700  0.68155000  1
  C  430  1  0.67839300  0.12265100  0.84713700  1
  C  433  1  0.22536800  0.06816500  0.97620600  1
  C  434  1  0.23938800  0.08819600  0.99337000  1
  C  435  1  0.22193000  0.10871800  0.00768900  1
  C  436  1  0.18977700  0.11008300  0.00534200  1
  C  437  1  0.17532400  0.09051900  0.98787700  1
  C  438  1  0.19323700  0.07010200  0.97351700  1
  C  440  1  0.17255200  0.13023700  0.02092400  1
  C  441  1  0.17421000  0.16256000  0.01886000  1
  C  442  1  0.15508700  0.18120800  0.03387800  1
  C  443  1  0.13425300  0.16855100  0.05116600  1
  C  444  1  0.13356700  0.13630200  0.05328800  1
  C  445  1  0.15228300  0.11756200  0.03853200  1
  C  457  1  0.11265300  0.18593000  0.06415900  1
  C  458  1  0.24251500  0.04727200  0.96237300  1
  C  461  1  0.79689300  0.95349400  0.97570000  1
  C  462  1  0.78281600  0.93379400  0.99309200  1
  C  463  1  0.80018300  0.91326200  0.00746700  1
  C  464  1  0.83229800  0.91157800  0.00496100  1
  C  465  1  0.84681300  0.93081100  0.98729500  1
  C  466  1  0.82898100  0.95119800  0.97284600  1
  C  468  1  0.84944300  0.89140600  0.02056700  1
  C  469  1  0.84758800  0.85908800  0.01859000  1
  C  470  1  0.86664200  0.84039800  0.03362600  1
  C  471  1  0.88763000  0.85302900  0.05080400  1
  C  472  1  0.88848400  0.88527900  0.05286100  1
  C  473  1  0.86983600  0.90405500  0.03808600  1
  C  485  1  0.90911500  0.83559200  0.06386100  1
  C  486  1  0.77984800  0.97424600  0.96160700  1
  C  489  1  0.06859400  0.79678800  0.04489900  1
  C  490  1  0.08836100  0.78267900  0.02757800  1
  C  491  1  0.10891600  0.80003600  0.01321900  1
  C  492  1  0.11055200  0.83216100  0.01568200  1
  C  493  1  0.09126300  0.84669900  0.03329300  1
  C  494  1  0.07083600  0.82888200  0.04771300  1
  C  496  1  0.13070500  0.84928500  0.00005600  1
  C  497  1  0.16302000  0.84752800  0.00209200  1
  C  498  1  0.18168700  0.86655600  0.98701600  1
  C  499  1  0.16904300  0.88738100  0.96971500  1
  C  500  1  0.13679400  0.88817100  0.96763600  1
  C  501  1  0.11803300  0.86955100  0.98244900  1
  C  513  1  0.18644100  0.90889400  0.95665900  1
  C  514  1  0.04768400  0.77979100  0.05885900  1
  C  517  1  0.95354800  0.22507700  0.04546100  1
  C  518  1  0.93372100  0.23910400  0.02814200  1
  C  519  1  0.91321100  0.22168100  0.01378900  1
  C  520  1  0.91166500  0.18955100  0.01624400  1
  C  521  1  0.93103000  0.17508500  0.03384400  1
  C  522  1  0.95140300  0.19297200  0.04826800  1
  C  524  1  0.89150900  0.17236500  0.00064000  1
  C  525  1  0.85918400  0.17415200  0.00261700  1
  C  526  1  0.84052200  0.15512000  0.98753200  1
  C  527  1  0.85318200  0.13422400  0.97029400  1
  C  528  1  0.88543700  0.13342600  0.96825000  1
  C  529  1  0.90418500  0.15204700  0.98307400  1
  C  541  1  0.83577900  0.11276100  0.95717300  1
  C  542  1  0.97422700  0.24222700  0.05952600  1
  C  545  1  0.72465800  0.46188600  0.48616000  1
  C  546  1  0.73667400  0.44228300  0.50459600  1
  C  547  1  0.71854200  0.41954800  0.51572500  1
  C  548  1  0.68760100  0.41566700  0.50894300  1
  C  549  1  0.67516200  0.43490200  0.49025600  1
  C  550  1  0.69382700  0.45755900  0.47904200  1
  C  552  1  0.66923000  0.39448300  0.52255900  1
  C  553  1  0.67347900  0.36234000  0.52129100  1
  C  554  1  0.65453800  0.34272100  0.53562300  1
  C  555  1  0.63155200  0.35430400  0.55154800  1
  C  556  1  0.62805700  0.38643900  0.55270900  1
  C  557  1  0.64648100  0.40611100  0.53855700  1
  C  569  1  0.61086800  0.33579900  0.56442400  1
  C  570  1  0.74265000  0.48560800  0.47689400  1
  C  573  1  0.29646800  0.56719100  0.47577400  1
  C  574  1  0.28232400  0.58679400  0.49320500  1
  C  575  1  0.29960900  0.60743000  0.50754600  1
  C  576  1  0.33170300  0.60931700  0.50496900  1
  C  577  1  0.34628000  0.59018900  0.48726300  1
  C  578  1  0.32852800  0.56969700  0.47284600  1
  C  580  1  0.34876800  0.62954100  0.52058200  1
  C  581  1  0.34673100  0.66185500  0.51867000  1
  C  582  1  0.36566400  0.68060200  0.53375700  1
  C  583  1  0.38669700  0.66803000  0.55092500  1
  C  584  1  0.38775100  0.63578000  0.55290600  1
  C  585  1  0.36923000  0.61694700  0.53807600  1
  C  597  1  0.40798900  0.68555000  0.56410500  1
  C  598  1  0.27948900  0.54633200  0.46172700  1
  C  601  1  0.56768300  0.72342000  0.54589700  1
  C  602  1  0.58735400  0.73693000  0.52818800  1
  C  603  1  0.60794400  0.71911800  0.51422300  1
  C  604  1  0.60975600  0.68710300  0.51747400  1
  C  605  1  0.59053600  0.67317900  0.53546500  1
  C  606  1  0.57006300  0.69145100  0.54947300  1
  C  608  1  0.62996600  0.66945100  0.50224400  1
  C  609  1  0.66229200  0.67184800  0.50379600  1
  C  610  1  0.68102400  0.65243200  0.48909300  1
  C  611  1  0.66844100  0.63057400  0.47262300  1
  C  612  1  0.63618000  0.62908700  0.47102200  1
  C  613  1  0.61736500  0.64808200  0.48547500  1
  C  625  1  0.68604300  0.60931000  0.45947400  1
  C  626  1  0.54676600  0.74086800  0.55951000  1
  C  629  1  0.45307000  0.29496400  0.54564500  1
  C  630  1  0.43337600  0.28107000  0.52816000  1
  C  631  1  0.41297100  0.29861300  0.51380700  1
  C  632  1  0.41142900  0.33072100  0.51642400  1
  C  633  1  0.43068000  0.34506300  0.53417100  1
  C  634  1  0.45092800  0.32705200  0.54860300  1
  C  636  1  0.39132100  0.34801400  0.50087900  1
  C  637  1  0.35900000  0.34619600  0.50283600  1
  C  638  1  0.34035500  0.36530800  0.48781900  1
  C  639  1  0.35303300  0.38632300  0.47069100  1
  C  640  1  0.38528600  0.38717700  0.46867500  1
  C  641  1  0.40402300  0.36846500  0.48343000  1
  C  653  1  0.33560500  0.40776300  0.45759000  1
  C  654  1  0.47372400  0.27772100  0.55965100  1
  C  657  1  0.15889300  0.32521600  0.55262300  1
  C  658  1  0.17353300  0.32463100  0.57619700  1
  C  659  1  0.17733300  0.35148900  0.59055100  1
  C  660  1  0.16511400  0.37926200  0.58143000  1
  C  661  1  0.14998900  0.38048800  0.55826800  1
  C  662  1  0.14794100  0.35377800  0.54361500  1
  C  665  1  0.15495300  0.29788000  0.53808600  1
  C  666  1  0.18023200  0.28005200  0.52983700  1
  C  667  1  0.17580600  0.25397400  0.51460800  1
  C  668  1  0.14590900  0.24678200  0.50637400  1
  C  669  1  0.12042500  0.26398500  0.51423600  1
  C  670  1  0.12522100  0.28921000  0.53014700  1
  C  683  1  0.04632990  0.74239700  0.55213500  1
  C  684  1  0.03157190  0.74308900  0.57563400  1
  C  685  1  0.02842890  0.71643900  0.59029900  1
  C  686  1  0.04132890  0.68880100  0.58155400  1
  C  687  1  0.05591090  0.68722200  0.55821100  1
  C  688  1  0.05781890  0.71390000  0.54339200  1
  C  691  1  0.05004690  0.76969000  0.53751500  1
  C  692  1  0.02465890  0.78732100  0.52921200  1
  C  693  1  0.02896590  0.81339600  0.51396300  1
  C  694  1  0.05882390  0.82076600  0.50575100  1
  C  695  1  0.08439190  0.80374900  0.51368300  1
  C  696  1  0.07973790  0.77857900  0.52966400  1
  C  709  1  0.39420400  0.97709200  0.35874300  1
  C  710  1  0.39363500  0.96241500  0.33518200  1
  C  711  1  0.42051000  0.95856500  0.32085400  1
  C  712  1  0.44828500  0.97074600  0.32999900  1
  C  713  1  0.44948800  0.98588500  0.35315300  1
  C  714  1  0.42276200  0.98801900  0.36777300  1
  C  717  1  0.36687100  0.98101900  0.37327900  1
  C  718  1  0.34906100  0.95570300  0.38147600  1
  C  719  1  0.32295800  0.96008700  0.39667400  1
  C  720  1  0.31565200  0.98996300  0.40487700  1
  C  721  1  0.33286200  0.01547170  0.39708600  1
  C  722  1  0.35816400  0.01073370  0.38124400  1
  C  735  1  0.81114800  0.08999270  0.35863500  1
  C  736  1  0.81170500  0.10475900  0.33512700  1
  C  737  1  0.78497500  0.10788600  0.32053300  1
  C  738  1  0.75740400  0.09492770  0.32937800  1
  C  739  1  0.75595300  0.08036570  0.35273400  1
  C  740  1  0.78269700  0.07850370  0.36747200  1
  C  743  1  0.83848900  0.08624070  0.37321200  1
  C  744  1  0.85609500  0.11160100  0.38161000  1
  C  745  1  0.88207200  0.10726000  0.39697100  1
  C  746  1  0.88936600  0.07738270  0.40519100  1
  C  747  1  0.87239900  0.05182970  0.39715500  1
  C  748  1  0.84733600  0.05652870  0.38106800  1
  C  761  1  0.65996200  0.24088200  0.05155330  1
  C  762  1  0.67554200  0.24134300  0.07473430  1
  C  763  1  0.67942500  0.21441200  0.08900530  1
  C  764  1  0.66708900  0.18669700  0.08009330  1
  C  765  1  0.65166000  0.18549600  0.05710030  1
  C  766  1  0.64879300  0.21232800  0.04268730  1
  C  769  1  0.65542500  0.26828000  0.03720830  1
  C  770  1  0.68031900  0.28659400  0.02889030  1
  C  771  1  0.67525600  0.31274500  0.01388930  1
  C  772  1  0.64517200  0.31955700  0.00593525  1
  C  773  1  0.62007200  0.30192100  0.01392830  1
  C  774  1  0.62544500  0.27662300  0.02962930  1
  C  787  1  0.54473500  0.82485300  0.05181130  1
  C  788  1  0.52900200  0.82466500  0.07491430  1
  C  789  1  0.52582600  0.85157700  0.08930330  1
  C  790  1  0.53852600  0.87909500  0.08034230  1
  C  791  1  0.55408500  0.88016200  0.05741830  1
  C  792  1  0.55673100  0.85314800  0.04307430  1
  C  795  1  0.54874200  0.79732000  0.03749830  1
  C  796  1  0.52346200  0.77965200  0.02902430  1
  C  797  1  0.52796500  0.75335800  0.01407130  1
  C  798  1  0.55793700  0.74576700  0.00628925  1
  C  799  1  0.58342000  0.76282200  0.01434530  1
  C  800  1  0.57855200  0.78822100  0.03005530  1
  C  813  1  0.89538100  0.59382600  0.85939700  1
  C  814  1  0.89489000  0.60958700  0.83632800  1
  C  815  1  0.92189000  0.61369900  0.82218900  1
  C  816  1  0.94966500  0.60155500  0.83116300  1
  C  817  1  0.95084800  0.58600400  0.85410100  1
  C  818  1  0.92394200  0.58279900  0.86836100  1
  C  821  1  0.86788500  0.58817700  0.87326800  1
  C  822  1  0.84939900  0.61216400  0.88292100  1
  C  823  1  0.82348200  0.60569000  0.89788200  1
  C  824  1  0.81721300  0.57495200  0.90452800  1
  C  825  1  0.83520100  0.55081000  0.89512000  1
  C  826  1  0.85989400  0.55763800  0.87926000  1
  C  839  1  0.31047100  0.47561400  0.85976600  1
  C  840  1  0.31069100  0.45991000  0.83665500  1
  C  841  1  0.28380400  0.45678100  0.82223200  1
  C  842  1  0.25628900  0.46954200  0.83114700  1
  C  843  1  0.25519300  0.48508800  0.85407500  1
  C  844  1  0.28217000  0.48764200  0.86847200  1
  C  847  1  0.33798100  0.47965300  0.87409100  1
  C  848  1  0.35571300  0.45442500  0.88257000  1
  C  849  1  0.38190200  0.45900400  0.89763100  1
  C  850  1  0.38931100  0.48898000  0.90552200  1
  C  851  1  0.37220700  0.51441100  0.89742700  1
  C  852  1  0.34694500  0.50947900  0.88158500  1
  C  865  1  0.11229700  0.45353700  0.55161200  1
  C  866  1  0.08422290  0.46737400  0.55811100  1
  C  867  1  0.07920390  0.49872600  0.55418200  1
  C  868  1  0.10216500  0.51744700  0.54375300  1
  C  869  1  0.13029800  0.50391200  0.53660900  1
  C  870  1  0.13496900  0.47221500  0.54059200  1
  C  872  1  0.09709990  0.54959000  0.54205300  1
  C  873  1  0.09410490  0.56801600  0.56359400  1
  C  874  1  0.08885490  0.59979600  0.56097800  1
  C  875  1  0.08634690  0.61389800  0.53740700  1
  C  876  1  0.08984690  0.59520400  0.51621200  1
  C  877  1  0.09513090  0.56360300  0.51848700  1
  C  889  1  0.08035990  0.64504900  0.53483300  1
  C  890  1  0.11827700  0.42363500  0.55905800  1
  C  893  1  0.52245900  0.02365870  0.35986900  1
  C  894  1  0.53626200  0.05174470  0.35335200  1
  C  895  1  0.56761200  0.05679770  0.35727000  1
  C  896  1  0.58636000  0.03384470  0.36767500  1
  C  897  1  0.57286600  0.00569872  0.37482600  1
  C  898  1  0.54116700  0.00100372  0.37087700  1
  C  900  1  0.61850500  0.03891570  0.36929500  1
  C  901  1  0.63685000  0.04185170  0.34770300  1
  C  902  1  0.66862700  0.04714570  0.35023400  1
  C  903  1  0.68280600  0.04976070  0.37376500  1
  C  904  1  0.66419700  0.04629770  0.39501500  1
  C  905  1  0.63259400  0.04097870  0.39282600  1
  C  917  1  0.71395300  0.05581170  0.37624600  1
  C  918  1  0.49256700  0.01767070  0.35240600  1
  C  921  1  0.61318700  0.11296700  0.05049330  1
  C  922  1  0.58493500  0.09946570  0.05695030  1
  C  923  1  0.57962600  0.06813970  0.05314830  1
  C  924  1  0.60246400  0.04913870  0.04288130  1
  C  925  1  0.63078000  0.06232170  0.03579730  1
  C  926  1  0.63573900  0.09398670  0.03965330  1
  C  928  1  0.59709300  0.01705870  0.04126230  1
  C  929  1  0.59387600  0.99876500  0.06285530  1
  C  930  1  0.58839800  0.96702500  0.06030930  1
  C  931  1  0.58588800  0.95286800  0.03676330  1
  C  932  1  0.58962000  0.97141500  0.01551730  1
  C  933  1  0.59511700  0.00297972  0.01772430  1
  C  945  1  0.57974200  0.92176500  0.03427430  1
  C  946  1  0.61936200  0.14291400  0.05769030  1
  C  949  1  0.02292090  0.54666300  0.86063300  1
  C  950  1  0.03606990  0.51827200  0.85408400  1
  C  951  1  0.06730590  0.51251500  0.85794200  1
  C  952  1  0.08657790  0.53503800  0.86833100  1
  C  953  1  0.07375490  0.56349300  0.87548200  1
  C  954  1  0.04216990  0.56889600  0.87158900  1
  C  956  1  0.11857800  0.52922800  0.87000900  1
  C  957  1  0.13691000  0.52589100  0.84845200  1
  C  958  1  0.16858000  0.52005200  0.85105600  1
  C  959  1  0.18262600  0.51730600  0.87462900  1
  C  960  1  0.16404200  0.52114800  0.89584000  1
  C  961  1  0.13254700  0.52698700  0.89357500  1
  C  973  1  0.21366500  0.51089100  0.87717200  1
  C  974  1  0.99304500  0.55322700  0.85345500  1
  C  977  1  0.22467000  0.37197000  0.64321500  1
  C  978  1  0.23809200  0.40064400  0.64863100  1
  C  979  1  0.24768400  0.40822700  0.67273800  1
  C  980  1  0.24439900  0.38742000  0.69259200  1
  C  981  1  0.23096600  0.35847300  0.68759500  1
  C  982  1  0.22107300  0.35120600  0.66311900  1
  C  984  1  0.25544300  0.39628600  0.71660300  1
  C  985  1  0.24244000  0.42102400  0.73001900  1
  C  986  1  0.25599500  0.43069000  0.75262600  1
  C  987  1  0.28257200  0.41664300  0.76246800  1
  C  988  1  0.29502300  0.39194700  0.74887200  1
  C  989  1  0.28173600  0.38194600  0.72646300  1
  C  1001  1  0.29634500  0.42650700  0.78460200  1
  C  1002  1  0.21516600  0.36620800  0.61888800  1
  C  1005  1  0.98077500  0.69625500  0.64279100  1
  C  1006  1  0.96688300  0.66783600  0.64830300  1
  C  1007  1  0.95712800  0.66057200  0.67242500  1
  C  1008  1  0.96073100  0.68146800  0.69217400  1
  C  1009  1  0.97460000  0.71017700  0.68708900  1
  C  1010  1  0.98463800  0.71711700  0.66259900  1
  C  1012  1  0.94969700  0.67287800  0.71622600  1
  C  1013  1  0.96265000  0.64819000  0.72972000  1
  C  1014  1  0.94910700  0.63875300  0.75238100  1
  C  1015  1  0.92262100  0.65300600  0.76218600  1
  C  1016  1  0.91021900  0.67765000  0.74851400  1
  C  1017  1  0.92348900  0.68741900  0.72603700  1
  C  1029  1  0.90884100  0.64325100  0.78432100  1
  C  1030  1  0.99060000  0.70164900  0.61849800  1
  C  1033  1  0.44096100  0.91112400  0.26824700  1
  C  1034  1  0.46962600  0.89768200  0.26284100  1
  C  1035  1  0.47720100  0.88804400  0.23874500  1
  C  1036  1  0.45639400  0.89129700  0.21888800  1
  C  1037  1  0.42745000  0.90474800  0.22387500  1
  C  1038  1  0.42019200  0.91468500  0.24834200  1
  C  1040  1  0.46525800  0.88020800  0.19488400  1
  C  1041  1  0.49000400  0.89317500  0.18145500  1
  C  1042  1  0.49967600  0.87956800  0.15886600  1
  C  1043  1  0.48563100  0.85297200  0.14905800  1
  C  1044  1  0.46092500  0.84056300  0.16266600  1
  C  1045  1  0.45091400  0.85390000  0.18505300  1
  C  1057  1  0.49551600  0.83913100  0.12695100  1
  C  1058  1  0.43519700  0.92064500  0.29257200  1
  C  1061  1  0.76414000  0.15523300  0.26793600  1
  C  1062  1  0.73554600  0.16882800  0.26251700  1
  C  1063  1  0.72804800  0.17855100  0.23842900  1
  C  1064  1  0.74886400  0.17522500  0.21858700  1
  C  1065  1  0.77774400  0.16165200  0.22358200  1
  C  1066  1  0.78492200  0.15163100  0.24804000  1
  C  1068  1  0.74002100  0.18627000  0.19457200  1
  C  1069  1  0.71526000  0.17327100  0.18118400  1
  C  1070  1  0.70556900  0.18682200  0.15858400  1
  C  1071  1  0.71961400  0.21338800  0.14872400  1
  C  1072  1  0.74434500  0.22582800  0.16228200  1
  C  1073  1  0.75436700  0.21254600  0.18468900  1
  C  1085  1  0.70962600  0.22720200  0.12664700  1
  C  1086  1  0.76977200  0.14549600  0.29223400  1
  C  1089  1  0.31674700  0.09100970  0.42130300  1
  C  1090  1  0.33076700  0.11104100  0.43846700  1
  C  1091  1  0.31330900  0.13156300  0.45278600  1
  C  1092  1  0.28115600  0.13292800  0.45043900  1
  C  1093  1  0.26670300  0.11336400  0.43297400  1
  C  1094  1  0.28461600  0.09294670  0.41861400  1
  C  1096  1  0.26393100  0.15308200  0.46602100  1
  C  1097  1  0.26558900  0.18540500  0.46395700  1
  C  1098  1  0.24646600  0.20405300  0.47897500  1
  C  1099  1  0.22563200  0.19139600  0.49626300  1
  C  1100  1  0.22494600  0.15914700  0.49838500  1
  C  1101  1  0.24366200  0.14040700  0.48362900  1
  C  1113  1  0.20403200  0.20877500  0.50925600  1
  C  1114  1  0.33389400  0.07011670  0.40747000  1
  C  1117  1  0.88827200  0.97633900  0.42079700  1
  C  1118  1  0.87419500  0.95663900  0.43818900  1
  C  1119  1  0.89156200  0.93610700  0.45256400  1
  C  1120  1  0.92367700  0.93442300  0.45005800  1
  C  1121  1  0.93819200  0.95365600  0.43239200  1
  C  1122  1  0.92036000  0.97404300  0.41794300  1
  C  1124  1  0.94082200  0.91425100  0.46566400  1
  C  1125  1  0.93896700  0.88193300  0.46368700  1
  C  1126  1  0.95802100  0.86324300  0.47872300  1
  C  1127  1  0.97900900  0.87587400  0.49590100  1
  C  1128  1  0.97986300  0.90812400  0.49795800  1
  C  1129  1  0.96121500  0.92690000  0.48318300  1
  C  1141  1  0.00049386  0.85843700  0.50895800  1
  C  1142  1  0.87122700  0.99709100  0.40670400  1
  C  1145  1  0.15997300  0.81963300  0.48999600  1
  C  1146  1  0.17974000  0.80552400  0.47267500  1
  C  1147  1  0.20029500  0.82288100  0.45831600  1
  C  1148  1  0.20193100  0.85500600  0.46077900  1
  C  1149  1  0.18264200  0.86954400  0.47839000  1
  C  1150  1  0.16221500  0.85172700  0.49281000  1
  C  1152  1  0.22208400  0.87213000  0.44515300  1
  C  1153  1  0.25439900  0.87037300  0.44718900  1
  C  1154  1  0.27306600  0.88940100  0.43211300  1
  C  1155  1  0.26042200  0.91022600  0.41481200  1
  C  1156  1  0.22817300  0.91101600  0.41273300  1
  C  1157  1  0.20941200  0.89239600  0.42754600  1
  C  1169  1  0.27782000  0.93173900  0.40175600  1
  C  1170  1  0.13906300  0.80263600  0.50395600  1
  C  1173  1  0.04492690  0.24792200  0.49055800  1
  C  1174  1  0.02509990  0.26194900  0.47323900  1
  C  1175  1  0.00458986  0.24452600  0.45888600  1
  C  1176  1  0.00304386  0.21239600  0.46134100  1
  C  1177  1  0.02240890  0.19793000  0.47894100  1
  C  1178  1  0.04278190  0.21581700  0.49336500  1
  C  1180  1  0.98288800  0.19521000  0.44573700  1
  C  1181  1  0.95056300  0.19699700  0.44771400  1
  C  1182  1  0.93190100  0.17796500  0.43262900  1
  C  1183  1  0.94456100  0.15706900  0.41539100  1
  C  1184  1  0.97681600  0.15627100  0.41334700  1
  C  1185  1  0.99556400  0.17489200  0.42817100  1
  C  1197  1  0.92715800  0.13560600  0.40227000  1
  C  1198  1  0.06560590  0.26507200  0.50462300  1
  C  1201  1  0.81603700  0.48473100  0.93125700  1
  C  1202  1  0.82805300  0.46512800  0.94969300  1
  C  1203  1  0.80992100  0.44239300  0.96082200  1
  C  1204  1  0.77898000  0.43851200  0.95404000  1
  C  1205  1  0.76654100  0.45774700  0.93535300  1
  C  1206  1  0.78520600  0.48040400  0.92413900  1
  C  1208  1  0.76060900  0.41732800  0.96765600  1
  C  1209  1  0.76485800  0.38518500  0.96638800  1
  C  1210  1  0.74591700  0.36556600  0.98072000  1
  C  1211  1  0.72293100  0.37714900  0.99664500  1
  C  1212  1  0.71943600  0.40928400  0.99780600  1
  C  1213  1  0.73786000  0.42895600  0.98365400  1
  C  1225  1  0.70224700  0.35864400  0.00952125  1
  C  1226  1  0.83402900  0.50845300  0.92199100  1
  C  1229  1  0.38784700  0.59003600  0.92087100  1
  C  1230  1  0.37370300  0.60963900  0.93830200  1
  C  1231  1  0.39098800  0.63027500  0.95264300  1
  C  1232  1  0.42308200  0.63216200  0.95006600  1
  C  1233  1  0.43765900  0.61303400  0.93236000  1
  C  1234  1  0.41990700  0.59254200  0.91794300  1
  C  1236  1  0.44014700  0.65238600  0.96567900  1
  C  1237  1  0.43811000  0.68470000  0.96376700  1
  C  1238  1  0.45704300  0.70344700  0.97885400  1
  C  1239  1  0.47807600  0.69087500  0.99602200  1
  C  1240  1  0.47913000  0.65862500  0.99800300  1
  C  1241  1  0.46060900  0.63979200  0.98317300  1
  C  1253  1  0.49936800  0.70839500  0.00920225  1
  C  1254  1  0.37086800  0.56917700  0.90682400  1
  C  1257  1  0.65906200  0.74626500  0.99099400  1
  C  1258  1  0.67873300  0.75977500  0.97328500  1
  C  1259  1  0.69932300  0.74196300  0.95932000  1
  C  1260  1  0.70113500  0.70994800  0.96257100  1
  C  1261  1  0.68191500  0.69602400  0.98056200  1
  C  1262  1  0.66144200  0.71429600  0.99457000  1
  C  1264  1  0.72134500  0.69229600  0.94734100  1
  C  1265  1  0.75367100  0.69469300  0.94889300  1
  C  1266  1  0.77240300  0.67527700  0.93419000  1
  C  1267  1  0.75982000  0.65341900  0.91772000  1
  C  1268  1  0.72755900  0.65193200  0.91611900  1
  C  1269  1  0.70874400  0.67092700  0.93057200  1
  C  1281  1  0.77742200  0.63215500  0.90457100  1
  C  1282  1  0.63814500  0.76371300  0.00460725  1
  C  1285  1  0.54444900  0.31780900  0.99074200  1
  C  1286  1  0.52475500  0.30391500  0.97325700  1
  C  1287  1  0.50435000  0.32145800  0.95890400  1
  C  1288  1  0.50280800  0.35356600  0.96152100  1
  C  1289  1  0.52205900  0.36790800  0.97926800  1
  C  1290  1  0.54230700  0.34989700  0.99370000  1
  C  1292  1  0.48270000  0.37085900  0.94597600  1
  C  1293  1  0.45037900  0.36904100  0.94793300  1
  C  1294  1  0.43173400  0.38815300  0.93291600  1
  C  1295  1  0.44441200  0.40916800  0.91578800  1
  C  1296  1  0.47666500  0.41002200  0.91377200  1
  C  1297  1  0.49540200  0.39131000  0.92852700  1
  C  1309  1  0.42698400  0.43060800  0.90268700  1
  C  1310  1  0.56510300  0.30056600  0.00474825  1
  N  23  1  0.00188800  0.23179900  0.06090400  1
  N  24  1  0.10789800  0.21472700  0.06065500  1
  N  25  1  0.04869500  0.38454800  0.10478100  1
  N  26  1  0.09912200  0.32876800  0.16799900  1
  N  49  1  0.02013300  0.79035900  0.06040300  1
  N  50  1  0.91407700  0.80689400  0.06003600  1
  N  51  1  0.97526200  0.63694800  0.10704600  1
  N  52  1  0.92375700  0.69364200  0.16767700  1
  N  75  1  0.23202700  0.01973400  0.96021800  1
  N  76  1  0.21517400  0.91376000  0.96038100  1
  N  77  1  0.38499800  0.97297300  0.91645600  1
  N  78  1  0.32926300  0.92250700  0.85322800  1
  N  101  1  0.79039100  0.00184400  0.96028700  1
  N  102  1  0.80701800  0.10790500  0.96078700  1
  N  103  1  0.63720100  0.04672100  0.91379200  1
  N  104  1  0.69348200  0.09827600  0.85291400  1
  N  127  1  0.50134400  0.28821400  0.56094300  1
  N  128  1  0.60683800  0.30707400  0.56008300  1
  N  129  1  0.55038900  0.13572600  0.60372500  1
  N  130  1  0.60195900  0.18952900  0.66581800  1
  N  153  1  0.51925600  0.73027100  0.56144800  1
  N  154  1  0.41318800  0.71414200  0.56000300  1
  N  155  1  0.47377900  0.88458700  0.60623900  1
  N  156  1  0.42067000  0.83093800  0.66617700  1
  N  179  1  0.73735700  0.49904800  0.45578200  1
  N  180  1  0.71502600  0.60529200  0.46249300  1
  N  181  1  0.88633700  0.55302800  0.41720600  1
  N  182  1  0.83246900  0.60452600  0.35510800  1
  N  205  1  0.29023500  0.51881500  0.46029700  1
  N  206  1  0.30693300  0.41277200  0.46147300  1
  N  207  1  0.13658100  0.47346900  0.41498700  1
  N  208  1  0.19025600  0.42016900  0.35516400  1
  N  227  1  0.06239900  0.49973500  0.08167300  1
  N  228  1  0.00550900  0.53167200  0.14228000  1
  N  255  1  0.50019000  0.95938700  0.93954900  1
  N  256  1  0.53188700  0.01613000  0.87886300  1
  N  283  1  0.56275300  0.02051700  0.58102600  1
  N  284  1  0.50530300  0.98950800  0.64150800  1
  N  311  1  0.00161600  0.56368900  0.44018500  1
  N  312  1  0.03206600  0.50610700  0.37958100  1
  N  339  1  0.13577800  0.31476800  0.26230100  1
  N  340  1  0.12446400  0.41263800  0.27561500  1
  N  367  1  0.88732800  0.70824200  0.26172300  1
  N  368  1  0.89777300  0.61069000  0.27533500  1
  N  395  1  0.31520700  0.88567900  0.75897300  1
  N  396  1  0.41308500  0.89694100  0.74563300  1
  N  423  1  0.70722700  0.13496900  0.75868500  1
  N  424  1  0.60940600  0.12385000  0.74541600  1
  N  451  1  0.14320900  0.09194800  0.98481100  1
  N  452  1  0.19413100  0.17556000  0.00108000  1
  N  479  1  0.87889600  0.92908600  0.98412000  1
  N  480  1  0.82753200  0.84613000  0.00088700  1
  N  507  1  0.09295300  0.87879100  0.03642800  1
  N  508  1  0.17598500  0.82761000  0.01989300  1
  N  535  1  0.92943300  0.14298900  0.03698400  1
  N  536  1  0.84619200  0.19412100  0.02036700  1
  N  563  1  0.64425100  0.43109400  0.48312900  1
  N  564  1  0.69601100  0.35047700  0.50511500  1
  N  591  1  0.37834300  0.59212200  0.48402900  1
  N  592  1  0.32660400  0.67475600  0.50099200  1
  N  619  1  0.59235900  0.64123100  0.53940600  1
  N  620  1  0.67524900  0.69290800  0.52071200  1
  N  647  1  0.42910900  0.37714400  0.53742700  1
  N  648  1  0.34599500  0.32611100  0.52049300  1
  N  679  1  0.09326690  0.25464400  0.50600100  1
  N  680  1  0.19927700  0.23757200  0.50575200  1
  N  681  1  0.14007400  0.40739300  0.54987800  1
  N  682  1  0.19050100  0.35161300  0.61309600  1
  N  705  1  0.11151200  0.81320400  0.50550000  1
  N  706  1  0.00545586  0.82973900  0.50513300  1
  N  707  1  0.06664090  0.65979300  0.55214300  1
  N  708  1  0.01513590  0.71648700  0.61277400  1
  N  731  1  0.32340600  0.04257870  0.40531500  1
  N  732  1  0.30655300  0.93660500  0.40547800  1
  N  733  1  0.47637700  0.99581800  0.36155300  1
  N  734  1  0.42064200  0.94535200  0.29832500  1
  N  757  1  0.88177000  0.02468870  0.40538400  1
  N  758  1  0.89839700  0.13075000  0.40588400  1
  N  759  1  0.72858000  0.06956570  0.35888900  1
  N  760  1  0.78486100  0.12112100  0.29801100  1
  N  783  1  0.59272300  0.31105900  0.00604025  1
  N  784  1  0.69821700  0.32991900  0.00518025  1
  N  785  1  0.64176800  0.15857100  0.04882230  1
  N  786  1  0.69333800  0.21237400  0.11091500  1
  N  809  1  0.61063500  0.75311600  0.00654525  1
  N  810  1  0.50456700  0.73698700  0.00510025  1
  N  811  1  0.56515800  0.90743200  0.05133630  1
  N  812  1  0.51204900  0.85378300  0.11127400  1
  N  835  1  0.82873600  0.52189300  0.90087900  1
  N  836  1  0.80640500  0.62813700  0.90759000  1
  N  837  1  0.97771600  0.57587300  0.86230300  1
  N  838  1  0.92384800  0.62737100  0.80020500  1
  N  861  1  0.38161400  0.54166000  0.90539400  1
  N  862  1  0.39831200  0.43561700  0.90657000  1
  N  863  1  0.22796000  0.49631400  0.86008400  1
  N  864  1  0.28163500  0.44301400  0.80026100  1
  N  883  1  0.15377800  0.52258000  0.52677000  1
  N  884  1  0.09688790  0.55451700  0.58737700  1
  N  911  1  0.59156900  0.98223200  0.38464600  1
  N  912  1  0.62326600  0.03897470  0.32396000  1
  N  939  1  0.65413200  0.04336170  0.02612330  1
  N  940  1  0.59668200  0.01235270  0.08660530  1
  N  967  1  0.09299490  0.58653400  0.88528200  1
  N  968  1  0.12344500  0.52895200  0.82467800  1
  N  995  1  0.22715700  0.33761300  0.70739800  1
  N  996  1  0.21584300  0.43548300  0.72071200  1
  N  1023  1  0.97870700  0.73108700  0.70682000  1
  N  1024  1  0.98915200  0.63353500  0.72043200  1
  N  1051  1  0.40658600  0.90852400  0.20407000  1
  N  1052  1  0.50446400  0.91978600  0.19073000  1
  N  1079  1  0.79860600  0.15781400  0.20378200  1
  N  1080  1  0.70078500  0.14669500  0.19051300  1
  N  1107  1  0.23458800  0.11479300  0.42990800  1
  N  1108  1  0.28551000  0.19840500  0.44617700  1
  N  1135  1  0.97027500  0.95193100  0.42921700  1
  N  1136  1  0.91891100  0.86897500  0.44598400  1
  N  1163  1  0.18433200  0.90163600  0.48152500  1
  N  1164  1  0.26736400  0.85045500  0.46499000  1
  N  1191  1  0.02081190  0.16583400  0.48208100  1
  N  1192  1  0.93757100  0.21696600  0.46546400  1
  N  1219  1  0.73563000  0.45393900  0.92822600  1
  N  1220  1  0.78739000  0.37332200  0.95021200  1
  N  1247  1  0.46972200  0.61496700  0.92912600  1
  N  1248  1  0.41798300  0.69760100  0.94608900  1
  N  1275  1  0.68373800  0.66407600  0.98450300  1
  N  1276  1  0.76662800  0.71575300  0.96580900  1
  N  1303  1  0.52048800  0.39998900  0.98252400  1
  N  1304  1  0.43737400  0.34895600  0.96559000  1
  O  8  1  0.07574300  0.38222000  0.15052100  1
  O  15  1  0.05009100  0.19987900  0.04552300  1
  O  17  1  0.04311200  0.33319500  0.07577600  1
  O  18  1  0.11788100  0.26491700  0.09134900  1
  O  34  1  0.94931300  0.64070100  0.15141600  1
  O  41  1  0.97175800  0.82198300  0.04488200  1
  O  43  1  0.97987200  0.68917800  0.07556000  1
  O  44  1  0.90428800  0.75660200  0.09069500  1
  O  60  1  0.38272900  0.94584500  0.87074400  1
  O  67  1  0.20013400  0.97149100  0.97546800  1
  O  69  1  0.33362400  0.97864100  0.94541300  1
  O  70  1  0.26544000  0.90384000  0.92977100  1
  O  86  1  0.64070300  0.07260900  0.86939200  1
  O  93  1  0.82191900  0.05018300  0.97598700  1
  O  95  1  0.68954100  0.04225200  0.94512700  1
  O  96  1  0.75687300  0.11776000  0.92994200  1
  O  112  1  0.57999100  0.13740200  0.64804100  1
  O  119  1  0.54878100  0.32092500  0.54534600  1
  O  121  1  0.54330700  0.18723700  0.57510900  1
  O  122  1  0.61818500  0.25650100  0.59010500  1
  O  138  1  0.44503800  0.88219100  0.64933800  1
  O  145  1  0.47105200  0.69862200  0.54569100  1
  O  147  1  0.47973300  0.83175800  0.57560600  1
  O  148  1  0.40297900  0.76486000  0.59002500  1
  O  164  1  0.88474700  0.58306400  0.37305300  1
  O  171  1  0.70192700  0.54530200  0.47470400  1
  O  173  1  0.83466000  0.54537900  0.44555900  1
  O  174  1  0.76498300  0.61900300  0.43277400  1
  O  190  1  0.13901000  0.44467500  0.37190300  1
  O  197  1  0.32208300  0.47069100  0.47606100  1
  O  199  1  0.18930700  0.47915000  0.44575800  1
  O  200  1  0.25642300  0.40246300  0.43129400  1
  O  229  1  0.98155400  0.53510400  0.15482600  1
  O  230  1  0.06990300  0.49122600  0.06027000  1
  O  231  1  0.08571800  0.49958200  0.09526700  1
  O  232  1  0.02756900  0.54275000  0.15417600  1
  O  257  1  0.53524800  0.04004600  0.86625400  1
  O  258  1  0.49171900  0.95187400  0.96095800  1
  O  259  1  0.50003500  0.93607000  0.92595300  1
  O  260  1  0.54294400  0.99403800  0.86699000  1
  O  285  1  0.48128600  0.98631200  0.65401700  1
  O  286  1  0.57047000  0.02882700  0.55962100  1
  O  287  1  0.58598800  0.02052600  0.59471500  1
  O  288  1  0.52724700  0.97833000  0.65348300  1
  O  313  1  0.03504800  0.48211300  0.36700900  1
  O  314  1  0.99333900  0.57139900  0.46159900  1
  O  315  1  0.00196100  0.58699800  0.42658000  1
  O  316  1  0.04353300  0.52798100  0.36769900  1
  O  341  1  0.12901600  0.44052000  0.27146300  1
  O  342  1  0.15005300  0.29035000  0.25835700  1
  O  343  1  0.10807300  0.30855000  0.26573100  1
  O  344  1  0.10248600  0.41016100  0.29047800  1
  O  369  1  0.89307800  0.58279900  0.27131800  1
  O  370  1  0.87343000  0.73285000  0.25767800  1
  O  371  1  0.91512100  0.71405100  0.26515400  1
  O  372  1  0.91980400  0.61316400  0.29014800  1
  O  397  1  0.44096500  0.89239100  0.74980000  1
  O  398  1  0.29078600  0.87141700  0.76294100  1
  O  399  1  0.30899600  0.91338000  0.75551600  1
  O  400  1  0.41062000  0.91889100  0.73074200  1
  O  425  1  0.58153300  0.12843000  0.74959400  1
  O  426  1  0.73170500  0.14912400  0.76268200  1
  O  427  1  0.71332500  0.10725000  0.75519900  1
  O  428  1  0.61184400  0.10185800  0.73056200  1
  O  453  1  0.21355100  0.19263500  0.01119300  1
  O  454  1  0.13081300  0.06674000  0.98964600  1
  O  455  1  0.13609600  0.09959600  0.96310500  1
  O  456  1  0.17972700  0.19074600  0.98513200  1
  O  481  1  0.80805000  0.82920400  0.01108400  1
  O  482  1  0.89151300  0.95424500  0.98874100  1
  O  483  1  0.88582700  0.92116400  0.96244000  1
  O  484  1  0.84179900  0.83080600  0.98494700  1
  O  509  1  0.19299300  0.80811900  0.00980000  1
  O  510  1  0.06779700  0.89138100  0.03174600  1
  O  511  1  0.10080600  0.88576600  0.05811600  1
  O  512  1  0.19122700  0.84201100  0.03580700  1
  O  537  1  0.82923400  0.21361100  0.01021500  1
  O  538  1  0.95462200  0.13046800  0.03229700  1
  O  539  1  0.92160000  0.13599000  0.05867100  1
  O  540  1  0.83088800  0.17977100  0.03627100  1
  O  565  1  0.71564600  0.33525300  0.51678200  1
  O  566  1  0.62895700  0.45491900  0.48700500  1
  O  567  1  0.64205100  0.42419200  0.46057900  1
  O  568  1  0.68437100  0.33374100  0.48870800  1
  O  593  1  0.30702600  0.69153800  0.51122400  1
  O  594  1  0.39113600  0.56704300  0.48861900  1
  O  595  1  0.38516200  0.60010400  0.46233900  1
  O  596  1  0.34079100  0.69022400  0.48509500  1
  O  621  1  0.69166300  0.71217800  0.50972200  1
  O  622  1  0.56725100  0.62836700  0.53506600  1
  O  623  1  0.60028700  0.63511100  0.56124400  1
  O  624  1  0.69110600  0.67963300  0.53687300  1
  O  649  1  0.32905600  0.30667900  0.51025000  1
  O  650  1  0.45433600  0.38965800  0.53287200  1
  O  651  1  0.42116800  0.38403600  0.55911100  1
  O  652  1  0.33067100  0.34035900  0.53644600  1
  O  664  1  0.16712200  0.40506500  0.59561800  1
  O  671  1  0.14147000  0.22272400  0.49062000  1
  O  673  1  0.13449100  0.35604000  0.52087300  1
  O  674  1  0.20926000  0.28776200  0.53644600  1
  O  690  1  0.04069190  0.66354600  0.59651300  1
  O  697  1  0.06313690  0.84482800  0.48997900  1
  O  699  1  0.07125090  0.71202300  0.52065700  1
  O  700  1  0.99566700  0.77944700  0.53579200  1
  O  716  1  0.47410800  0.96869000  0.31584100  1
  O  723  1  0.29151300  0.99433600  0.42056500  1
  O  725  1  0.42500300  0.00148572  0.39051000  1
  O  726  1  0.35681900  0.92668500  0.37486800  1
  O  742  1  0.73208200  0.09545370  0.31448900  1
  O  749  1  0.91329800  0.07302770  0.42108400  1
  O  751  1  0.78092000  0.06509670  0.39022400  1
  O  752  1  0.84825200  0.14060500  0.37503900  1
  O  768  1  0.67137000  0.16024700  0.09313830  1
  O  775  1  0.64016000  0.34377000  0.99044300  1
  O  777  1  0.63468600  0.21008200  0.02020630  1
  O  778  1  0.70956400  0.27934600  0.03520230  1
  O  794  1  0.53641700  0.90503600  0.09443530  1
  O  801  1  0.56243100  0.72146700  0.99078800  1
  O  803  1  0.57111200  0.85460300  0.02070330  1
  O  804  1  0.49435800  0.78770500  0.03512230  1
  O  820  1  0.97612600  0.60590900  0.81815000  1
  O  827  1  0.79330600  0.56814700  0.91980100  1
  O  829  1  0.92603900  0.56822400  0.89065600  1
  O  830  1  0.85636200  0.64184800  0.87787100  1
  O  846  1  0.23038900  0.46752000  0.81700000  1
  O  853  1  0.41346200  0.49353600  0.92115800  1
  O  855  1  0.28068600  0.50199500  0.89085500  1
  O  856  1  0.34780200  0.42530800  0.87639100  1
  O  885  1  0.07293290  0.55794900  0.59992300  1
  O  886  1  0.16128200  0.51407100  0.50536700  1
  O  887  1  0.17709700  0.52242700  0.54036400  1
  O  888  1  0.11894800  0.56559500  0.59927300  1
  O  913  1  0.62662700  0.06289070  0.31135100  1
  O  914  1  0.58309800  0.97471900  0.40605500  1
  O  915  1  0.59141400  0.95891500  0.37105000  1
  O  916  1  0.63432300  0.01688270  0.31208700  1
  O  941  1  0.57266500  0.00915672  0.09911430  1
  O  942  1  0.66184900  0.05167170  0.00471825  1
  O  943  1  0.67736700  0.04337070  0.03981230  1
  O  944  1  0.61862600  0.00117472  0.09858030  1
  O  969  1  0.12642700  0.50495800  0.81210600  1
  O  970  1  0.08471790  0.59424400  0.90669600  1
  O  971  1  0.09333990  0.60984300  0.87167700  1
  O  972  1  0.13491200  0.55082600  0.81279600  1
  O  997  1  0.22039500  0.46336500  0.71656000  1
  O  998  1  0.24143200  0.31319500  0.70345400  1
  O  999  1  0.19945200  0.33139500  0.71082800  1
  O  1000  1  0.19386500  0.43300600  0.73557500  1
  O  1025  1  0.98445700  0.60564400  0.71641500  1
  O  1026  1  0.96480900  0.75569500  0.70277500  1
  O  1027  1  0.00649986  0.73689600  0.71025100  1
  O  1028  1  0.01118290  0.63600900  0.73524500  1
  O  1053  1  0.53234400  0.91523600  0.19489700  1
  O  1054  1  0.38216500  0.89426200  0.20803800  1
  O  1055  1  0.40037500  0.93622500  0.20061300  1
  O  1056  1  0.50199900  0.94173600  0.17583900  1
  O  1081  1  0.67291200  0.15127500  0.19469100  1
  O  1082  1  0.82308400  0.17196900  0.20777900  1
  O  1083  1  0.80470400  0.13009500  0.20029600  1
  O  1084  1  0.70322300  0.12470300  0.17565900  1
  O  1109  1  0.30493000  0.21548000  0.45629000  1
  O  1110  1  0.22219200  0.08958470  0.43474300  1
  O  1111  1  0.22747500  0.12244100  0.40820200  1
  O  1112  1  0.27110600  0.21359100  0.43022900  1
  O  1137  1  0.89942900  0.85204900  0.45618100  1
  O  1138  1  0.98289200  0.97709000  0.43383800  1
  O  1139  1  0.97720600  0.94400900  0.40753700  1
  O  1140  1  0.93317800  0.85365100  0.43004400  1
  O  1165  1  0.28437200  0.83096400  0.45489700  1
  O  1166  1  0.15917600  0.91422600  0.47684300  1
  O  1167  1  0.19218500  0.90861100  0.50321300  1
  O  1168  1  0.28260600  0.86485600  0.48090400  1
  O  1193  1  0.92061300  0.23645600  0.45531200  1
  O  1194  1  0.04600090  0.15331300  0.47739400  1
  O  1195  1  0.01297890  0.15883500  0.50376800  1
  O  1196  1  0.92226700  0.20261600  0.48136800  1
  O  1221  1  0.80702500  0.35809800  0.96187900  1
  O  1222  1  0.72033600  0.47776400  0.93210200  1
  O  1223  1  0.73343000  0.44703700  0.90567600  1
  O  1224  1  0.77575000  0.35658600  0.93380500  1
  O  1249  1  0.39840500  0.71438300  0.95632100  1
  O  1250  1  0.48251500  0.58988800  0.93371600  1
  O  1251  1  0.47654100  0.62294900  0.90743600  1
  O  1252  1  0.43217000  0.71306900  0.93019200  1
  O  1277  1  0.78304200  0.73502300  0.95481900  1
  O  1278  1  0.65863000  0.65121200  0.98016300  1
  O  1279  1  0.69166600  0.65795600  0.00634125  1
  O  1280  1  0.78248500  0.70247800  0.98197000  1
  O  1305  1  0.42043500  0.32952400  0.95534700  1
  O  1306  1  0.54571500  0.41250300  0.97796900  1
  O  1307  1  0.51254700  0.40688100  0.00420825  1
  O  1308  1  0.42205000  0.36320400  0.98154300  1
