# generated using pymatgen
data_Mn3H57C51N8O9
_symmetry_space_group_name_H-M   'P 1'
_cell_length_a   17.36406000
_cell_length_b   30.09277000
_cell_length_c   30.08998000
_cell_angle_alpha   85.28115000
_cell_angle_beta   73.28532000
_cell_angle_gamma   73.29587000
_symmetry_Int_Tables_number   1
_chemical_formula_structural   Mn3H57C51N8O9
_chemical_formula_sum   'Mn24 H456 C408 N64 O72'
_cell_volume   14423.23150056
_cell_formula_units_Z   8
loop_
 _symmetry_equiv_pos_site_id
 _symmetry_equiv_pos_as_xyz
  1  'x, y, z'
loop_
 _atom_site_type_symbol
 _atom_site_label
 _atom_site_symmetry_multiplicity
 _atom_site_fract_x
 _atom_site_fract_y
 _atom_site_fract_z
 _atom_site_occupancy
  Mn  Mn0  1  0.39937000  0.88595000  0.96168000  1
  Mn  Mn1  1  0.21277000  0.99879000  0.07952000  1
  Mn  Mn2  1  0.64353000  0.91686000  0.85628000  1
  Mn  Mn3  1  0.24701000  0.61380000  0.53836000  1
  Mn  Mn4  1  0.29170000  0.50096000  0.42073000  1
  Mn  Mn5  1  0.41646000  0.58325000  0.64387000  1
  Mn  Mn6  1  0.78545000  0.96161000  0.61440000  1
  Mn  Mn7  1  0.71252000  0.07905000  0.50113000  1
  Mn  Mn8  1  0.06068000  0.85615000  0.58322000  1
  Mn  Mn9  1  0.36127000  0.53760000  0.88599000  1
  Mn  Mn10  1  0.29267000  0.42006000  0.99888000  1
  Mn  Mn11  1  0.49941000  0.64366000  0.91694000  1
  Mn  Mn12  1  0.60062000  0.11405000  0.03832000  1
  Mn  Mn13  1  0.78723000  0.00121000  0.92049000  1
  Mn  Mn14  1  0.35646000  0.08314000  0.14372000  1
  Mn  Mn15  1  0.75298000  0.38620000  0.46164000  1
  Mn  Mn16  1  0.70829000  0.49904000  0.57927000  1
  Mn  Mn17  1  0.58353000  0.41675000  0.35614000  1
  Mn  Mn18  1  0.21455000  0.03839000  0.38561000  1
  Mn  Mn19  1  0.28747000  0.92095000  0.49888000  1
  Mn  Mn20  1  0.93931000  0.14385000  0.41678000  1
  Mn  Mn21  1  0.63873000  0.46240000  0.11402000  1
  Mn  Mn22  1  0.70732000  0.57994000  0.00112000  1
  Mn  Mn23  1  0.50058000  0.35634000  0.08306000  1
  H  H24  1  0.28443000  0.89910000  0.84674000  1
  H  H25  1  0.14254000  0.94481000  0.84164000  1
  H  H26  1  0.03945000  0.98993000  0.91022000  1
  H  H27  1  0.08295000  0.99058000  0.98248000  1
  H  H28  1  0.37696000  0.94837000  0.10878000  1
  H  H29  1  0.48036000  0.92740000  0.07324000  1
  H  H30  1  0.46553000  0.88102000  0.14411000  1
  H  H31  1  0.47956000  0.84559000  0.09707000  1
  H  H32  1  0.31127000  0.89096000  0.16672000  1
  H  H33  1  0.32144000  0.85909000  0.11827000  1
  H  H34  1  0.41136000  0.78859000  0.14844000  1
  H  H35  1  0.40222000  0.82021000  0.19693000  1
  H  H36  1  0.24450000  0.83294000  0.22093000  1
  H  H37  1  0.29905000  0.77301000  0.21751000  1
  H  H38  1  0.25465000  0.79994000  0.17251000  1
  H  H39  1  0.07791000  0.92418000  0.19226000  1
  H  H40  1  0.06239000  0.92363000  0.27724000  1
  H  H41  1  0.13508000  0.96969000  0.30908000  1
  H  H42  1  0.22209000  0.01405000  0.25501000  1
  H  H43  1  0.37740000  0.08207000  0.98928000  1
  H  H44  1  0.37461000  0.11161000  0.03848000  1
  H  H45  1  0.29739000  0.16185000  0.98410000  1
  H  H46  1  0.22661000  0.12764000  0.99666000  1
  H  H47  1  0.25568000  0.18397000  0.06807000  1
  H  H48  1  0.18619000  0.14958000  0.08171000  1
  H  H49  1  0.17427000  0.23426000  0.01699000  1
  H  H50  1  0.10627000  0.19884000  0.02806000  1
  H  H51  1  0.06271000  0.21865000  0.11412000  1
  H  H52  1  0.04090000  0.26903000  0.07979000  1
  H  H53  1  0.12927000  0.25542000  0.10214000  1
  H  H54  1  0.12068000  0.06397000  0.01443000  1
  H  H55  1  0.01648000  0.14122000  0.01449000  1
  H  H56  1  0.95479000  0.13830000  0.16411000  1
  H  H57  1  0.06267000  0.06188000  0.15774000  1
  H  H58  1  0.89145000  0.20835000  0.12464000  1
  H  H59  1  0.93324000  0.21485000  0.06425000  1
  H  H60  1  0.82311000  0.78722000  0.79953000  1
  H  H61  1  0.80950000  0.70638000  0.80853000  1
  H  H62  1  0.68114000  0.69022000  0.86391000  1
  H  H63  1  0.56943000  0.75501000  0.90732000  1
  H  H64  1  0.37649000  0.99356000  0.96212000  1
  H  H65  1  0.43431000  0.03256000  0.93390000  1
  H  H66  1  0.39319000  0.02694000  0.86119000  1
  H  H67  1  0.33458000  0.98869000  0.88964000  1
  H  H68  1  0.30245000  0.08909000  0.91960000  1
  H  H69  1  0.24769000  0.05050000  0.95025000  1
  H  H70  1  0.25350000  0.08276000  0.84992000  1
  H  H71  1  0.19961000  0.04321000  0.87992000  1
  H  H72  1  0.10603000  0.10384000  0.93897000  1
  H  H73  1  0.16235000  0.14405000  0.91221000  1
  H  H74  1  0.10250000  0.12508000  0.88272000  1
  H  H75  1  0.68972000  0.33917000  0.08183000  1
  H  H76  1  0.81835000  0.27623000  0.08064000  1
  H  H77  1  0.67404000  0.17835000  0.09017000  1
  H  H78  1  0.55143000  0.24562000  0.08996000  1
  H  H79  1  0.81483000  0.15395000  0.10703000  1
  H  H80  1  0.85231000  0.16389000  0.04810000  1
  H  H81  1  0.02925000  0.60180000  0.65298000  1
  H  H82  1  0.92823000  0.55575000  0.65827000  1
  H  H83  1  0.94040000  0.50921000  0.59024000  1
  H  H84  1  0.05714000  0.50807000  0.51827000  1
  H  H85  1  0.43308000  0.55160000  0.39130000  1
  H  H86  1  0.48061000  0.57219000  0.42687000  1
  H  H87  1  0.49026000  0.61875000  0.35604000  1
  H  H88  1  0.42215000  0.65423000  0.40307000  1
  H  H89  1  0.36838000  0.60889000  0.33338000  1
  H  H90  1  0.29849000  0.64069000  0.38185000  1
  H  H91  1  0.34832000  0.71118000  0.35188000  1
  H  H92  1  0.41917000  0.67964000  0.30337000  1
  H  H93  1  0.29814000  0.66704000  0.27911000  1
  H  H94  1  0.28982000  0.72692000  0.28259000  1
  H  H95  1  0.22706000  0.70007000  0.32749000  1
  H  H96  1  0.19450000  0.57547000  0.30840000  1
  H  H97  1  0.26266000  0.57628000  0.22340000  1
  H  H98  1  0.41288000  0.53056000  0.19120000  1
  H  H99  1  0.49080000  0.48593000  0.24486000  1
  H  H100  1  0.45019000  0.41750000  0.51048000  1
  H  H101  1  0.52559000  0.38805000  0.46121000  1
  H  H102  1  0.44506000  0.33745000  0.51569000  1
  H  H103  1  0.35243000  0.37169000  0.50360000  1
  H  H104  1  0.50834000  0.31542000  0.43185000  1
  H  H105  1  0.41828000  0.35002000  0.41829000  1
  H  H106  1  0.42591000  0.26520000  0.48276000  1
  H  H107  1  0.33369000  0.30080000  0.47182000  1
  H  H108  1  0.39559000  0.28132000  0.38565000  1
  H  H109  1  0.38905000  0.23094000  0.41980000  1
  H  H110  1  0.48651000  0.24418000  0.39761000  1
  H  H111  1  0.19988000  0.43565000  0.48551000  1
  H  H112  1  0.17311000  0.35835000  0.48532000  1
  H  H113  1  0.25723000  0.36159000  0.33569000  1
  H  H114  1  0.28246000  0.43800000  0.34221000  1
  H  H115  1  0.22439000  0.29134000  0.37514000  1
  H  H116  1  0.21276000  0.28479000  0.43552000  1
  H  H117  1  0.40972000  0.71300000  0.70050000  1
  H  H118  1  0.32419000  0.79377000  0.69150000  1
  H  H119  1  0.23503000  0.80977000  0.63608000  1
  H  H120  1  0.23167000  0.74494000  0.59254000  1
  H  H121  1  0.33287000  0.50593000  0.53767000  1
  H  H122  1  0.40122000  0.46720000  0.56625000  1
  H  H123  1  0.28167000  0.47299000  0.63872000  1
  H  H124  1  0.21358000  0.51122000  0.61013000  1
  H  H125  1  0.31107000  0.41075000  0.58037000  1
  H  H126  1  0.24852000  0.44932000  0.54966000  1
  H  H127  1  0.18633000  0.41716000  0.64999000  1
  H  H128  1  0.12300000  0.45671000  0.61997000  1
  H  H129  1  0.14879000  0.39608000  0.56089000  1
  H  H130  1  0.21839000  0.35587000  0.58769000  1
  H  H131  1  0.11027000  0.37481000  0.61710000  1
  H  H132  1  0.11025000  0.16080000  0.41791000  1
  H  H133  1  0.17490000  0.22365000  0.41936000  1
  H  H134  1  0.94259000  0.32167000  0.40999000  1
  H  H135  1  0.88688000  0.25444000  0.40990000  1
  H  H136  1  0.07617000  0.34594000  0.39299000  1
  H  H137  1  0.06512000  0.33594000  0.45190000  1
  H  H138  1  0.68321000  0.84671000  0.60206000  1
  H  H139  1  0.58753000  0.84102000  0.55593000  1
  H  H140  1  0.53009000  0.90933000  0.51027000  1
  H  H141  1  0.57516000  0.98137000  0.50890000  1
  H  H142  1  0.82506000  0.10862000  0.55163000  1
  H  H143  1  0.90760000  0.07308000  0.57255000  1
  H  H144  1  0.84629000  0.14398000  0.61909000  1
  H  H145  1  0.82488000  0.09691000  0.65443000  1
  H  H146  1  0.70209000  0.16642000  0.60884000  1
  H  H147  1  0.68048000  0.11802000  0.64072000  1
  H  H148  1  0.70009000  0.14825000  0.71123000  1
  H  H149  1  0.72265000  0.19667000  0.67960000  1
  H  H150  1  0.57758000  0.22084000  0.66694000  1
  H  H151  1  0.57250000  0.21744000  0.72686000  1
  H  H152  1  0.55465000  0.17250000  0.69996000  1
  H  H153  1  0.50255000  0.19131000  0.57564000  1
  H  H154  1  0.48567000  0.27631000  0.57639000  1
  H  H155  1  0.60396000  0.30856000  0.53088000  1
  H  H156  1  0.73566000  0.25481000  0.48635000  1
  H  H157  1  0.95982000  0.98959000  0.41780000  1
  H  H158  1  0.98682000  0.03865000  0.38803000  1
  H  H159  1  0.95998000  0.98415000  0.33761000  1
  H  H160  1  0.85530000  0.99650000  0.37208000  1
  H  H161  1  0.93996000  0.06804000  0.31555000  1
  H  H162  1  0.83635000  0.08162000  0.35015000  1
  H  H163  1  0.90843000  0.01704000  0.26530000  1
  H  H164  1  0.80520000  0.02806000  0.30086000  1
  H  H165  1  0.78127000  0.11415000  0.28133000  1
  H  H166  1  0.80922000  0.07995000  0.23089000  1
  H  H167  1  0.88430000  0.10220000  0.24437000  1
  H  H168  1  0.68521000  0.01408000  0.43570000  1
  H  H169  1  0.65796000  0.01444000  0.35842000  1
  H  H170  1  0.59323000  0.16403000  0.36204000  1
  H  H171  1  0.62512000  0.15733000  0.43845000  1
  H  H172  1  0.59958000  0.12485000  0.29182000  1
  H  H173  1  0.64804000  0.06447000  0.28498000  1
  H  H174  1  0.11137000  0.79935000  0.71272000  1
  H  H175  1  0.01729000  0.80810000  0.79356000  1
  H  H176  1  0.87269000  0.86328000  0.80993000  1
  H  H177  1  0.82530000  0.90689000  0.74527000  1
  H  H178  1  0.86991000  0.96209000  0.50649000  1
  H  H179  1  0.96680000  0.93382000  0.46765000  1
  H  H180  1  0.92014000  0.86115000  0.47307000  1
  H  H181  1  0.82334000  0.88955000  0.51129000  1
  H  H182  1  0.89153000  0.91961000  0.41101000  1
  H  H183  1  0.79827000  0.95024000  0.44957000  1
  H  H184  1  0.83634000  0.84997000  0.41713000  1
  H  H185  1  0.74299000  0.87990000  0.45670000  1
  H  H186  1  0.70977000  0.93894000  0.39614000  1
  H  H187  1  0.80619000  0.91223000  0.35589000  1
  H  H188  1  0.72752000  0.88271000  0.37482000  1
  H  H189  1  0.52876000  0.08184000  0.16080000  1
  H  H190  1  0.59450000  0.08057000  0.22382000  1
  H  H191  1  0.35259000  0.08999000  0.32158000  1
  H  H192  1  0.29718000  0.08979000  0.25424000  1
  H  H193  1  0.46892000  0.10714000  0.34600000  1
  H  H194  1  0.51640000  0.04819000  0.33617000  1
  H  H195  1  0.13237000  0.65226000  0.89844000  1
  H  H196  1  0.98531000  0.65804000  0.94472000  1
  H  H197  1  0.95014000  0.58978000  0.99027000  1
  H  H198  1  0.06525000  0.51745000  0.99127000  1
  H  H199  1  0.48515000  0.39080000  0.94846000  1
  H  H200  1  0.55326000  0.42638000  0.92818000  1
  H  H201  1  0.60942000  0.35571000  0.88125000  1
  H  H202  1  0.57675000  0.40280000  0.84587000  1
  H  H203  1  0.47757000  0.33328000  0.89114000  1
  H  H204  1  0.43950000  0.38178000  0.85939000  1
  H  H205  1  0.55945000  0.35180000  0.78886000  1
  H  H206  1  0.59891000  0.30329000  0.82032000  1
  H  H207  1  0.46530000  0.27906000  0.83293000  1
  H  H208  1  0.51664000  0.28250000  0.77303000  1
  H  H209  1  0.42715000  0.32742000  0.79992000  1
  H  H210  1  0.27041000  0.30725000  0.92442000  1
  H  H211  1  0.34001000  0.22236000  0.92362000  1
  H  H212  1  0.44458000  0.19054000  0.96950000  1
  H  H213  1  0.47733000  0.24454000  0.01419000  1
  H  H214  1  0.36642000  0.51059000  0.08183000  1
  H  H215  1  0.41322000  0.46170000  0.11157000  1
  H  H216  1  0.28165000  0.51595000  0.16209000  1
  H  H217  1  0.22362000  0.50345000  0.12772000  1
  H  H218  1  0.32357000  0.43202000  0.18422000  1
  H  H219  1  0.26787000  0.41841000  0.14968000  1
  H  H220  1  0.19112000  0.48299000  0.23457000  1
  H  H221  1  0.13429000  0.47190000  0.19906000  1
  H  H222  1  0.17698000  0.38580000  0.21861000  1
  H  H223  1  0.12046000  0.42004000  0.26901000  1
  H  H224  1  0.23113000  0.39788000  0.25559000  1
  H  H225  1  0.13502000  0.48526000  0.06385000  1
  H  H226  1  0.03119000  0.48535000  0.14123000  1
  H  H227  1  0.11862000  0.33574000  0.13846000  1
  H  H228  1  0.21992000  0.34199000  0.06191000  1
  H  H229  1  0.01615000  0.37535000  0.20861000  1
  H  H230  1  0.99784000  0.43574000  0.21509000  1
  H  H231  1  0.62236000  0.70026000  0.78741000  1
  H  H232  1  0.61820000  0.69112000  0.70650000  1
  H  H233  1  0.54450000  0.63612000  0.69026000  1
  H  H234  1  0.47584000  0.59274000  0.75492000  1
  H  H235  1  0.33827000  0.53768000  0.99440000  1
  H  H236  1  0.36802000  0.56656000  0.03292000  1
  H  H237  1  0.25466000  0.63891000  0.02696000  1
  H  H238  1  0.22460000  0.61035000  0.98866000  1
  H  H239  1  0.22188000  0.58060000  0.08912000  1
  H  H240  1  0.19789000  0.54987000  0.05046000  1
  H  H241  1  0.10330000  0.65015000  0.08281000  1
  H  H242  1  0.07957000  0.62006000  0.04318000  1
  H  H243  1  0.04529000  0.56090000  0.10368000  1
  H  H244  1  0.07474000  0.58772000  0.14396000  1
  H  H245  1  0.98534000  0.61704000  0.12512000  1
  H  H246  1  0.77115000  0.41843000  0.33928000  1
  H  H247  1  0.89875000  0.41963000  0.27651000  1
  H  H248  1  0.76442000  0.41027000  0.17828000  1
  H  H249  1  0.64148000  0.41035000  0.24540000  1
  H  H250  1  0.92221000  0.39279000  0.15422000  1
  H  H251  1  0.90118000  0.45174000  0.16385000  1
  H  H252  1  0.71556000  0.10090000  0.15327000  1
  H  H253  1  0.85745000  0.05519000  0.15837000  1
  H  H254  1  0.96054000  0.01007000  0.08978000  1
  H  H255  1  0.91704000  0.00942000  0.01752000  1
  H  H256  1  0.62303000  0.05163000  0.89123000  1
  H  H257  1  0.51963000  0.07260000  0.92677000  1
  H  H258  1  0.53446000  0.11898000  0.85589000  1
  H  H259  1  0.52044000  0.15441000  0.90293000  1
  H  H260  1  0.68872000  0.10904000  0.83329000  1
  H  H261  1  0.67855000  0.14091000  0.88173000  1
  H  H262  1  0.58864000  0.21141000  0.85156000  1
  H  H263  1  0.59777000  0.17979000  0.80308000  1
  H  H264  1  0.75550000  0.16706000  0.77907000  1
  H  H265  1  0.70094000  0.22699000  0.78249000  1
  H  H266  1  0.74535000  0.20006000  0.82749000  1
  H  H267  1  0.92209000  0.07582000  0.80775000  1
  H  H268  1  0.93761000  0.07637000  0.72276000  1
  H  H269  1  0.86491000  0.03031000  0.69092000  1
  H  H270  1  0.77790000  0.98595000  0.74500000  1
  H  H271  1  0.62260000  0.91793000  0.01072000  1
  H  H272  1  0.62539000  0.88839000  0.96153000  1
  H  H273  1  0.70261000  0.83815000  0.01590000  1
  H  H274  1  0.77339000  0.87236000  0.00334000  1
  H  H275  1  0.74432000  0.81603000  0.93193000  1
  H  H276  1  0.81380000  0.85042000  0.91829000  1
  H  H277  1  0.82572000  0.76574000  0.98301000  1
  H  H278  1  0.89372000  0.80116000  0.97195000  1
  H  H279  1  0.93728000  0.78135000  0.88588000  1
  H  H280  1  0.95910000  0.73097000  0.92022000  1
  H  H281  1  0.87072000  0.74458000  0.89786000  1
  H  H282  1  0.87932000  0.93603000  0.98557000  1
  H  H283  1  0.98351000  0.85878000  0.98552000  1
  H  H284  1  0.04521000  0.86170000  0.83590000  1
  H  H285  1  0.93732000  0.93812000  0.84226000  1
  H  H286  1  0.10854000  0.79165000  0.87536000  1
  H  H287  1  0.06675000  0.78515000  0.93576000  1
  H  H288  1  0.17688000  0.21278000  0.20047000  1
  H  H289  1  0.19049000  0.29362000  0.19148000  1
  H  H290  1  0.31886000  0.30978000  0.13609000  1
  H  H291  1  0.43056000  0.24499000  0.09268000  1
  H  H292  1  0.62351000  0.00644000  0.03788000  1
  H  H293  1  0.56568000  0.96744000  0.06611000  1
  H  H294  1  0.60681000  0.97306000  0.13882000  1
  H  H295  1  0.66542000  0.01131000  0.11036000  1
  H  H296  1  0.69755000  0.91091000  0.08040000  1
  H  H297  1  0.75231000  0.94950000  0.04975000  1
  H  H298  1  0.74649000  0.91724000  0.15008000  1
  H  H299  1  0.80038000  0.95679000  0.12009000  1
  H  H300  1  0.89396000  0.89616000  0.06103000  1
  H  H301  1  0.83765000  0.85595000  0.08779000  1
  H  H302  1  0.89749000  0.87492000  0.11728000  1
  H  H303  1  0.31028000  0.66083000  0.91817000  1
  H  H304  1  0.18164000  0.72377000  0.91936000  1
  H  H305  1  0.32596000  0.82165000  0.90984000  1
  H  H306  1  0.44857000  0.75438000  0.91005000  1
  H  H307  1  0.18516000  0.84605000  0.89297000  1
  H  H308  1  0.14768000  0.83610000  0.95190000  1
  H  H309  1  0.97075000  0.39820000  0.34703000  1
  H  H310  1  0.07177000  0.44425000  0.34173000  1
  H  H311  1  0.05960000  0.49079000  0.40976000  1
  H  H312  1  0.94286000  0.49193000  0.48174000  1
  H  H313  1  0.56691000  0.44840000  0.60871000  1
  H  H314  1  0.51939000  0.42781000  0.57314000  1
  H  H315  1  0.50974000  0.38125000  0.64396000  1
  H  H316  1  0.57784000  0.34577000  0.59694000  1
  H  H317  1  0.63161000  0.39111000  0.66666667  1
  H  H318  1  0.70150000  0.35931000  0.61816000  1
  H  H319  1  0.65168000  0.28882000  0.64813000  1
  H  H320  1  0.58083000  0.32036000  0.69663000  1
  H  H321  1  0.70186000  0.33296000  0.72089000  1
  H  H322  1  0.71017000  0.27308000  0.71742000  1
  H  H323  1  0.77293000  0.29993000  0.67252000  1
  H  H324  1  0.80549000  0.42453000  0.69161000  1
  H  H325  1  0.73734000  0.42372000  0.77661000  1
  H  H326  1  0.58711000  0.46944000  0.80880000  1
  H  H327  1  0.50919000  0.51407000  0.75514000  1
  H  H328  1  0.54981000  0.58250000  0.48953000  1
  H  H329  1  0.47441000  0.61195000  0.53879000  1
  H  H330  1  0.55494000  0.66255000  0.48431000  1
  H  H331  1  0.64757000  0.62831000  0.49641000  1
  H  H332  1  0.49165000  0.68458000  0.56815000  1
  H  H333  1  0.58172000  0.64998000  0.58172000  1
  H  H334  1  0.57408000  0.73480000  0.51724000  1
  H  H335  1  0.66630000  0.69920000  0.52818000  1
  H  H336  1  0.60441000  0.71868000  0.61435000  1
  H  H337  1  0.61095000  0.76906000  0.58020000  1
  H  H338  1  0.51349000  0.75582000  0.60240000  1
  H  H339  1  0.80012000  0.56435000  0.51449000  1
  H  H340  1  0.82689000  0.64165000  0.51468000  1
  H  H341  1  0.74277000  0.63841000  0.66432000  1
  H  H342  1  0.71753000  0.56200000  0.65780000  1
  H  H343  1  0.77561000  0.70866000  0.62486000  1
  H  H344  1  0.78723000  0.71521000  0.56448000  1
  H  H345  1  0.59028000  0.28700000  0.29951000  1
  H  H346  1  0.67580000  0.20623000  0.30850000  1
  H  H347  1  0.76496000  0.19023000  0.36392000  1
  H  H348  1  0.76832000  0.25506000  0.40747000  1
  H  H349  1  0.66712000  0.49407000  0.46233000  1
  H  H350  1  0.59877000  0.53280000  0.43375000  1
  H  H351  1  0.71833000  0.52701000  0.36129000  1
  H  H352  1  0.78642000  0.48878000  0.38988000  1
  H  H353  1  0.68892000  0.58925000  0.41964000  1
  H  H354  1  0.75147000  0.55068000  0.45035000  1
  H  H355  1  0.81366000  0.58284000  0.35001000  1
  H  H356  1  0.87699000  0.54329000  0.38003000  1
  H  H357  1  0.85121000  0.60392000  0.43911000  1
  H  H358  1  0.78160000  0.64413000  0.41231000  1
  H  H359  1  0.88973000  0.62519000  0.38291000  1
  H  H360  1  0.88974000  0.83920000  0.58210000  1
  H  H361  1  0.82509000  0.77635000  0.58064000  1
  H  H362  1  0.05741000  0.67833000  0.59001000  1
  H  H363  1  0.11312000  0.74556000  0.59011000  1
  H  H364  1  0.92383000  0.65406000  0.60701000  1
  H  H365  1  0.93487000  0.66406000  0.54810000  1
  H  H366  1  0.31679000  0.15329000  0.39795000  1
  H  H367  1  0.41246000  0.15898000  0.44407000  1
  H  H368  1  0.46990000  0.09067000  0.48974000  1
  H  H369  1  0.42483000  0.01863000  0.49111000  1
  H  H370  1  0.17494000  0.89138000  0.44837000  1
  H  H371  1  0.09239000  0.92692000  0.42745000  1
  H  H372  1  0.15370000  0.85602000  0.38091000  1
  H  H373  1  0.17511000  0.90309000  0.34557000  1
  H  H374  1  0.29790000  0.83358000  0.39116000  1
  H  H375  1  0.31952000  0.88198000  0.35928000  1
  H  H376  1  0.29991000  0.85175000  0.28878000  1
  H  H377  1  0.27734000  0.80333000  0.32040000  1
  H  H378  1  0.42241000  0.77916000  0.33307000  1
  H  H379  1  0.42749000  0.78256000  0.27314000  1
  H  H380  1  0.44535000  0.82750000  0.30005000  1
  H  H381  1  0.49745000  0.80869000  0.42436000  1
  H  H382  1  0.51432000  0.72369000  0.42361000  1
  H  H383  1  0.39604000  0.69144000  0.46912000  1
  H  H384  1  0.26434000  0.74519000  0.51365000  1
  H  H385  1  0.04018000  0.01041000  0.58221000  1
  H  H386  1  0.01318000  0.96134000  0.61197000  1
  H  H387  1  0.04001000  0.01585000  0.66240000  1
  H  H388  1  0.14469000  0.00350000  0.62793000  1
  H  H389  1  0.06004000  0.93196000  0.68445000  1
  H  H390  1  0.16366000  0.91838000  0.64985000  1
  H  H391  1  0.09157000  0.98296000  0.73470000  1
  H  H392  1  0.19479000  0.97194000  0.69915000  1
  H  H393  1  0.21873000  0.88585000  0.71867000  1
  H  H394  1  0.19078000  0.92005000  0.76911000  1
  H  H395  1  0.11571000  0.89779000  0.75563000  1
  H  H396  1  0.31479000  0.98592000  0.56430000  1
  H  H397  1  0.34203000  0.98556000  0.64158000  1
  H  H398  1  0.40676000  0.83597000  0.63796000  1
  H  H399  1  0.37488000  0.84267000  0.56156000  1
  H  H400  1  0.40041000  0.87515000  0.70818000  1
  H  H401  1  0.35195000  0.93553000  0.71502000  1
  H  H402  1  0.88862000  0.20065000  0.28729000  1
  H  H403  1  0.98270000  0.19190000  0.20644000  1
  H  H404  1  0.12731000  0.13672000  0.19007000  1
  H  H405  1  0.17470000  0.09311000  0.25474000  1
  H  H406  1  0.13008000  0.03791000  0.49351000  1
  H  H407  1  0.03319000  0.06618000  0.53235000  1
  H  H408  1  0.07985000  0.13885000  0.52694000  1
  H  H409  1  0.17665000  0.11045000  0.48871000  1
  H  H410  1  0.10847000  0.08039000  0.58900000  1
  H  H411  1  0.20173000  0.04976000  0.55043000  1
  H  H412  1  0.16365000  0.15003000  0.58288000  1
  H  H413  1  0.25701000  0.12010000  0.54330000  1
  H  H414  1  0.29023000  0.06106000  0.60387000  1
  H  H415  1  0.19381000  0.08777000  0.64411000  1
  H  H416  1  0.27247000  0.11729000  0.62519000  1
  H  H417  1  0.47123000  0.91816000  0.83920000  1
  H  H418  1  0.40550000  0.91943000  0.77619000  1
  H  H419  1  0.64740000  0.91001000  0.67843000  1
  H  H420  1  0.70281000  0.91021000  0.74577000  1
  H  H421  1  0.53108000  0.89286000  0.65401000  1
  H  H422  1  0.48359000  0.95181000  0.66384000  1
  H  H423  1  0.86763000  0.34774000  0.10156000  1
  H  H424  1  0.01468000  0.34195000  0.05528000  1
  H  H425  1  0.04985000  0.41021000  0.00973000  1
  H  H426  1  0.93474000  0.48255000  0.00873000  1
  H  H427  1  0.51484000  0.60920000  0.05154000  1
  H  H428  1  0.44674000  0.57362000  0.07182000  1
  H  H429  1  0.39058000  0.64429000  0.11876000  1
  H  H430  1  0.42325000  0.59720000  0.15413000  1
  H  H431  1  0.52243000  0.66666667  0.10887000  1
  H  H432  1  0.56049000  0.61822000  0.14061000  1
  H  H433  1  0.44055000  0.64820000  0.21114000  1
  H  H434  1  0.40109000  0.69671000  0.17968000  1
  H  H435  1  0.53469000  0.72094000  0.16708000  1
  H  H436  1  0.48335000  0.71750000  0.22698000  1
  H  H437  1  0.57284000  0.67258000  0.20009000  1
  H  H438  1  0.72958000  0.69275000  0.07558000  1
  H  H439  1  0.65998000  0.77764000  0.07639000  1
  H  H440  1  0.55542000  0.80946000  0.03051000  1
  H  H441  1  0.52267000  0.75546000  0.98581000  1
  H  H442  1  0.63358000  0.48941000  0.91817000  1
  H  H443  1  0.58677000  0.53830000  0.88843000  1
  H  H444  1  0.71834000  0.48405000  0.83792000  1
  H  H445  1  0.77638000  0.49655000  0.87228000  1
  H  H446  1  0.67643000  0.56798000  0.81578000  1
  H  H447  1  0.73212000  0.58159000  0.85032000  1
  H  H448  1  0.80888000  0.51700000  0.76543000  1
  H  H449  1  0.86571000  0.52810000  0.80094000  1
  H  H450  1  0.82301000  0.61420000  0.78139000  1
  H  H451  1  0.87954000  0.57996000  0.73099000  1
  H  H452  1  0.76887000  0.60211000  0.74441000  1
  H  H453  1  0.86498000  0.51474000  0.93615000  1
  H  H454  1  0.96881000  0.51465000  0.85878000  1
  H  H455  1  0.88137000  0.66426000  0.86154000  1
  H  H456  1  0.78008000  0.65801000  0.93809000  1
  H  H457  1  0.98384000  0.62465000  0.79139000  1
  H  H458  1  0.00216000  0.56426000  0.78492000  1
  H  H459  1  0.37763000  0.29974000  0.21259000  1
  H  H460  1  0.38180000  0.30888000  0.29350000  1
  H  H461  1  0.45549000  0.36388000  0.30974000  1
  H  H462  1  0.52415000  0.40726000  0.24508000  1
  H  H463  1  0.66172000  0.46232000  0.00561000  1
  H  H464  1  0.63198000  0.43344000  0.96708000  1
  H  H465  1  0.74534000  0.36109000  0.97304000  1
  H  H466  1  0.77540000  0.38965000  0.01135000  1
  H  H467  1  0.77811000  0.41940000  0.91088000  1
  H  H468  1  0.80210000  0.45013000  0.94954000  1
  H  H469  1  0.89669000  0.34985000  0.91720000  1
  H  H470  1  0.92042000  0.37994000  0.95682000  1
  H  H471  1  0.95470000  0.43910000  0.89632000  1
  H  H472  1  0.92525000  0.41228000  0.85605000  1
  H  H473  1  0.01466000  0.38296000  0.87489000  1
  H  H474  1  0.22884000  0.58157000  0.66073000  1
  H  H475  1  0.10124000  0.58037000  0.72349000  1
  H  H476  1  0.23558000  0.58973000  0.82172000  1
  H  H477  1  0.35851000  0.58965000  0.75461000  1
  H  H478  1  0.07778000  0.60721000  0.84578000  1
  H  H479  1  0.09881000  0.54826000  0.83616000  1
  C  C480  1  0.26349000  0.91791000  0.91741000  1
  C  C481  1  0.23917000  0.91926000  0.87620000  1
  C  C482  1  0.15984000  0.94491000  0.87364000  1
  C  C483  1  0.10186000  0.97045000  0.91200000  1
  C  C484  1  0.12567000  0.97061000  0.95228000  1
  C  C485  1  0.20582000  0.94519000  0.95580000  1
  C  C486  1  0.22682000  0.94990000  0.99866000  1
  C  C487  1  0.39021000  0.91216000  0.04809000  1
  C  C488  1  0.42094000  0.91847000  0.08817000  1
  C  C489  1  0.43522000  0.87486000  0.11866000  1
  C  C490  1  0.35409000  0.86225000  0.14372000  1
  C  C491  1  0.36900000  0.81717000  0.17172000  1
  C  C492  1  0.28747000  0.80503000  0.19709000  1
  C  C493  1  0.15675000  0.96993000  0.17549000  1
  C  C494  1  0.10846000  0.94393000  0.20676000  1
  C  C495  1  0.10050000  0.94378000  0.25410000  1
  C  C496  1  0.14116000  0.96919000  0.27209000  1
  C  C497  1  0.18983000  0.99431000  0.24186000  1
  C  C498  1  0.19833000  0.99565000  0.19368000  1
  C  C499  1  0.24713000  0.02501000  0.16472000  1
  C  C500  1  0.29994000  0.06403000  0.05209000  1
  C  C501  1  0.33616000  0.09932000  0.02180000  1
  C  C502  1  0.26708000  0.14072000  0.01128000  1
  C  C503  1  0.21454000  0.17090000  0.05395000  1
  C  C504  1  0.14576000  0.21192000  0.04351000  1
  C  C505  1  0.09159000  0.24045000  0.08712000  1
  C  C506  1  0.08229000  0.08189000  0.04670000  1
  C  C507  1  0.02446000  0.12479000  0.04710000  1
  C  C508  1  0.97672000  0.14644000  0.08959000  1
  C  C509  1  0.99021000  0.12328000  0.13010000  1
  C  C510  1  0.04995000  0.08048000  0.12683000  1
  C  C511  1  0.90942000  0.19114000  0.09092000  1
  C  C512  1  0.70456000  0.81691000  0.84790000  1
  C  C513  1  0.76826000  0.77931000  0.82321000  1
  C  C514  1  0.76004000  0.73444000  0.82871000  1
  C  C515  1  0.68853000  0.72513000  0.85947000  1
  C  C516  1  0.62508000  0.76174000  0.88357000  1
  C  C517  1  0.63058000  0.80786000  0.87826000  1
  C  C518  1  0.55927000  0.84460000  0.90339000  1
  C  C519  1  0.48798000  0.96415000  0.90869000  1
  C  C520  1  0.41245000  0.00321000  0.92829000  1
  C  C521  1  0.35618000  0.01817000  0.89527000  1
  C  C522  1  0.28063000  0.05927000  0.91507000  1
  C  C523  1  0.22011000  0.07339000  0.88474000  1
  C  C524  1  0.14366000  0.11382000  0.90564000  1
  C  C525  1  0.68876000  0.30306000  0.08308000  1
  C  C526  1  0.76090000  0.26745000  0.08262000  1
  C  C527  1  0.75804000  0.22132000  0.08451000  1
  C  C528  1  0.68074000  0.21344000  0.08784000  1
  C  C529  1  0.61180000  0.25089000  0.08785000  1
  C  C530  1  0.83333000  0.18054000  0.08233000  1
  C  C531  1  0.09897000  0.58188000  0.58274000  1
  C  C532  1  0.03427000  0.58103000  0.62379000  1
  C  C533  1  0.97806000  0.55528000  0.62643000  1
  C  C534  1  0.98469000  0.52901000  0.58840000  1
  C  C535  1  0.04916000  0.52855000  0.54824000  1
  C  C536  1  0.10705000  0.55429000  0.54451000  1
  C  C537  1  0.17519000  0.54973000  0.50153000  1
  C  C538  1  0.34999000  0.58773000  0.45206000  1
  C  C539  1  0.42704000  0.58137000  0.41201000  1
  C  C540  1  0.42843000  0.62495000  0.38150000  1
  C  C541  1  0.35970000  0.63756000  0.35643000  1
  C  C542  1  0.35771000  0.68267000  0.32849000  1
  C  C543  1  0.28955000  0.69491000  0.30299000  1
  C  C544  1  0.30281000  0.53007000  0.32485000  1
  C  C545  1  0.25926000  0.55592000  0.29376000  1
  C  C546  1  0.29804000  0.55615000  0.24641000  1
  C  C547  1  0.38193000  0.53088000  0.22820000  1
  C  C548  1  0.42582000  0.50562000  0.25824000  1
  C  C549  1  0.38792000  0.50421000  0.30642000  1
  C  C550  1  0.43708000  0.47467000  0.33526000  1
  C  C551  1  0.41665000  0.43551000  0.44783000  1
  C  C552  1  0.45831000  0.40023000  0.47801000  1
  C  C553  1  0.42041000  0.35868000  0.48868000  1
  C  C554  1  0.44013000  0.32859000  0.44600000  1
  C  C555  1  0.40158000  0.28767000  0.45632000  1
  C  C556  1  0.41900000  0.25935000  0.41263000  1
  C  C557  1  0.21162000  0.41777000  0.45321000  1
  C  C558  1  0.19722000  0.37481000  0.45273000  1
  C  C559  1  0.21339000  0.35321000  0.41021000  1
  C  C560  1  0.24396000  0.37649000  0.36974000  1
  C  C561  1  0.25760000  0.41933000  0.37309000  1
  C  C562  1  0.19185000  0.30854000  0.40889000  1
  C  C563  1  0.36915000  0.68326000  0.65212000  1
  C  C564  1  0.37067000  0.72088000  0.67678000  1
  C  C565  1  0.32308000  0.76570000  0.67125000  1
  C  C566  1  0.27303000  0.77492000  0.64046000  1
  C  C567  1  0.27028000  0.73829000  0.61633000  1
  C  C568  1  0.31653000  0.69221000  0.62173000  1
  C  C569  1  0.30716000  0.65535000  0.59668000  1
  C  C570  1  0.36127000  0.53573000  0.59121000  1
  C  C571  1  0.34450000  0.49653000  0.57161000  1
  C  C572  1  0.27004000  0.48169000  0.60460000  1
  C  C573  1  0.25509000  0.44059000  0.58485000  1
  C  C574  1  0.17836000  0.42652000  0.61516000  1
  C  C575  1  0.16305000  0.38611000  0.59424000  1
  C  C576  1  0.07454000  0.19689000  0.41670000  1
  C  C577  1  0.11070000  0.23248000  0.41732000  1
  C  C578  1  0.06382000  0.27862000  0.41551000  1
  C  C579  1  0.98198000  0.28657000  0.41220000  1
  C  C580  1  0.95039000  0.24913000  0.41202000  1
  C  C581  1  0.09657000  0.31930000  0.41765000  1
  C  C582  1  0.68206000  0.91695000  0.58222000  1
  C  C583  1  0.65872000  0.87577000  0.58130000  1
  C  C584  1  0.60515000  0.87300000  0.55561000  1
  C  C585  1  0.57311000  0.91115000  0.52971000  1
  C  C586  1  0.59741000  0.95137000  0.52921000  1
  C  C587  1  0.65198000  0.95512000  0.55467000  1
  C  C588  1  0.67763000  0.99799000  0.54991000  1
  C  C589  1  0.80219000  0.04798000  0.58792000  1
  C  C590  1  0.83927000  0.08801000  0.58152000  1
  C  C591  1  0.80993000  0.11850000  0.62513000  1
  C  C592  1  0.71623000  0.14350000  0.63759000  1
  C  C593  1  0.68624000  0.17154000  0.68266000  1
  C  C594  1  0.59267000  0.19701000  0.69485000  1
  C  C595  1  0.62721000  0.17482000  0.53028000  1
  C  C596  1  0.55270000  0.20596000  0.55612000  1
  C  C597  1  0.54415000  0.25332000  0.55635000  1
  C  C598  1  0.60990000  0.27156000  0.53114000  1
  C  C599  1  0.68383000  0.24151000  0.50597000  1
  C  C600  1  0.69401000  0.19331000  0.50452000  1
  C  C601  1  0.77206000  0.16461000  0.47495000  1
  C  C602  1  0.86452000  0.05218000  0.43555000  1
  C  C603  1  0.93614000  0.02197000  0.40029000  1
  C  C604  1  0.90860000  0.01126000  0.35885000  1
  C  C605  1  0.88585000  0.05388000  0.32872000  1
  C  C606  1  0.85771000  0.04351000  0.28776000  1
  C  C607  1  0.83173000  0.08718000  0.25940000  1
  C  C608  1  0.66461000  0.04641000  0.41793000  1
  C  C609  1  0.64963000  0.04698000  0.37499000  1
  C  C610  1  0.62345000  0.08955000  0.35352000  1
  C  C611  1  0.61380000  0.12996000  0.37688000  1
  C  C612  1  0.63084000  0.12651000  0.41971000  1
  C  C613  1  0.60059000  0.09104000  0.30883000  1
  C  C614  1  0.02232000  0.84779000  0.68318000  1
  C  C615  1  0.04861000  0.82300000  0.72069000  1
  C  C616  1  0.99568000  0.82834000  0.76558000  1
  C  C617  1  0.91479000  0.85900000  0.77499000  1
  C  C618  1  0.88774000  0.88322000  0.73847000  1
  C  C619  1  0.93923000  0.87807000  0.69231000  1
  C  C620  1  0.90449000  0.90327000  0.65563000  1
  C  C621  1  0.95206000  0.90867000  0.53605000  1
  C  C622  1  0.91556000  0.92825000  0.49695000  1
  C  C623  1  0.87437000  0.89521000  0.48188000  1
  C  C624  1  0.83992000  0.91507000  0.44076000  1
  C  C625  1  0.79355000  0.88476000  0.42654000  1
  C  C626  1  0.75739000  0.90564000  0.38612000  1
  C  C627  1  0.49171000  0.08310000  0.19688000  1
  C  C628  1  0.52828000  0.08257000  0.23254000  1
  C  C629  1  0.47941000  0.08444000  0.27866000  1
  C  C630  1  0.39430000  0.08771000  0.28650000  1
  C  C631  1  0.36275000  0.08778000  0.24900000  1
  C  C632  1  0.51399000  0.08238000  0.31945000  1
  C  C633  1  0.18125000  0.58178000  0.91786000  1
  C  C634  1  0.11621000  0.62310000  0.91904000  1
  C  C635  1  0.03433000  0.62598000  0.94491000  1
  C  C636  1  0.01436000  0.58783000  0.97074000  1
  C  C637  1  0.07805000  0.54745000  0.97100000  1
  C  C638  1  0.16168000  0.54363000  0.94535000  1
  C  C639  1  0.22544000  0.50080000  0.95004000  1
  C  C640  1  0.43834000  0.45157000  0.91238000  1
  C  C641  1  0.50895000  0.41157000  0.91882000  1
  C  C642  1  0.55382000  0.38123000  0.87512000  1
  C  C643  1  0.49753000  0.35628000  0.86247000  1
  C  C644  1  0.54045000  0.32839000  0.81732000  1
  C  C645  1  0.48449000  0.30292000  0.80505000  1
  C  C646  1  0.33293000  0.32403000  0.96997000  1
  C  C647  1  0.31552000  0.29278000  0.94409000  1
  C  C648  1  0.35492000  0.24548000  0.94387000  1
  C  C649  1  0.41356000  0.22750000  0.96922000  1
  C  C650  1  0.43192000  0.25770000  0.99449000  1
  C  C651  1  0.39230000  0.30585000  0.99585000  1
  C  C652  1  0.41189000  0.33491000  0.02527000  1
  C  C653  1  0.35198000  0.44766000  0.06419000  1
  C  C654  1  0.35799000  0.47814000  0.09937000  1
  C  C655  1  0.27854000  0.48877000  0.14089000  1
  C  C656  1  0.26843000  0.44615000  0.17109000  1
  C  C657  1  0.18921000  0.45650000  0.21212000  1
  C  C658  1  0.17861000  0.41283000  0.24052000  1
  C  C659  1  0.12894000  0.45303000  0.08186000  1
  C  C660  1  0.07174000  0.45271000  0.12486000  1
  C  C661  1  0.06648000  0.41027000  0.14662000  1
  C  C662  1  0.12018000  0.36973000  0.12344000  1
  C  C663  1  0.17646000  0.37292000  0.08053000  1
  C  C664  1  0.00057000  0.40905000  0.19139000  1
  C  C665  1  0.55169000  0.65205000  0.81702000  1
  C  C666  1  0.59100000  0.67666000  0.77947000  1
  C  C667  1  0.58847000  0.67111000  0.73457000  1
  C  C668  1  0.54742000  0.64049000  0.72521000  1
  C  C669  1  0.50779000  0.61645000  0.76177000  1
  C  C670  1  0.50792000  0.62173000  0.80794000  1
  C  C671  1  0.46191000  0.59652000  0.84468000  1
  C  C672  1  0.39680000  0.59102000  0.96426000  1
  C  C673  1  0.34070000  0.57168000  0.00354000  1
  C  C674  1  0.25155000  0.60482000  0.01823000  1
  C  C675  1  0.19562000  0.58507000  0.05928000  1
  C  C676  1  0.10483000  0.61530000  0.07338000  1
  C  C677  1  0.04943000  0.59425000  0.11376000  1
  C  C678  1  0.77163000  0.41714000  0.30314000  1
  C  C679  1  0.84340000  0.41762000  0.26760000  1
  C  C680  1  0.84266000  0.41569000  0.22143000  1
  C  C681  1  0.76873000  0.41247000  0.21341000  1
  C  C682  1  0.69971000  0.41241000  0.25078000  1
  C  C683  1  0.91601000  0.41763000  0.18072000  1
  C  C684  1  0.73650000  0.08209000  0.08259000  1
  C  C685  1  0.76083000  0.08074000  0.12381000  1
  C  C686  1  0.84016000  0.05509000  0.12636000  1
  C  C687  1  0.89814000  0.02955000  0.08801000  1
  C  C688  1  0.87433000  0.02939000  0.04773000  1
  C  C689  1  0.79417000  0.05481000  0.04420000  1
  C  C690  1  0.77317000  0.05010000  0.00134000  1
  C  C691  1  0.60978000  0.08784000  0.95192000  1
  C  C692  1  0.57905000  0.08153000  0.91183000  1
  C  C693  1  0.56477000  0.12514000  0.88134000  1
  C  C694  1  0.64590000  0.13775000  0.85628000  1
  C  C695  1  0.63100000  0.18283000  0.82828000  1
  C  C696  1  0.71253000  0.19497000  0.80291000  1
  C  C697  1  0.84324000  0.03007000  0.82451000  1
  C  C698  1  0.89154000  0.05607000  0.79324000  1
  C  C699  1  0.89950000  0.05622000  0.74591000  1
  C  C700  1  0.85883000  0.03081000  0.72791000  1
  C  C701  1  0.81016000  0.00569000  0.75815000  1
  C  C702  1  0.80167000  0.00435000  0.80632000  1
  C  C703  1  0.75287000  0.97499000  0.83529000  1
  C  C704  1  0.70005000  0.93597000  0.94792000  1
  C  C705  1  0.66384000  0.90068000  0.97820000  1
  C  C706  1  0.73291000  0.85928000  0.98872000  1
  C  C707  1  0.78546000  0.82910000  0.94606000  1
  C  C708  1  0.85423000  0.78808000  0.95649000  1
  C  C709  1  0.90840000  0.75955000  0.91289000  1
  C  C710  1  0.91770000  0.91811000  0.95331000  1
  C  C711  1  0.97553000  0.87521000  0.95290000  1
  C  C712  1  0.02327000  0.85356000  0.91042000  1
  C  C713  1  0.00978000  0.87672000  0.86991000  1
  C  C714  1  0.95004000  0.91952000  0.87317000  1
  C  C715  1  0.09058000  0.80886000  0.90909000  1
  C  C716  1  0.29543000  0.18309000  0.15211000  1
  C  C717  1  0.23174000  0.22069000  0.17680000  1
  C  C718  1  0.23996000  0.26556000  0.17129000  1
  C  C719  1  0.31147000  0.27487000  0.14053000  1
  C  C720  1  0.37491000  0.23826000  0.11644000  1
  C  C721  1  0.36942000  0.19214000  0.12174000  1
  C  C722  1  0.44073000  0.15540000  0.09661000  1
  C  C723  1  0.51201000  0.03585000  0.09131000  1
  C  C724  1  0.58755000  0.99679000  0.07172000  1
  C  C725  1  0.64381000  0.98183000  0.10474000  1
  C  C726  1  0.71937000  0.94073000  0.08493000  1
  C  C727  1  0.77988000  0.92661000  0.11526000  1
  C  C728  1  0.85634000  0.88618000  0.09436000  1
  C  C729  1  0.31123000  0.69694000  0.91692000  1
  C  C730  1  0.23910000  0.73255000  0.91739000  1
  C  C731  1  0.24196000  0.77868000  0.91550000  1
  C  C732  1  0.31926000  0.78656000  0.91216000  1
  C  C733  1  0.38819000  0.74911000  0.91216000  1
  C  C734  1  0.16667000  0.81946000  0.91767000  1
  C  C735  1  0.90103000  0.41812000  0.41727000  1
  C  C736  1  0.96572000  0.41897000  0.37622000  1
  C  C737  1  0.02193000  0.44472000  0.37357000  1
  C  C738  1  0.01530000  0.47099000  0.41160000  1
  C  C739  1  0.95084000  0.47145000  0.45176000  1
  C  C740  1  0.89294000  0.44571000  0.45549000  1
  C  C741  1  0.82480000  0.45027000  0.49848000  1
  C  C742  1  0.65000000  0.41227000  0.54795000  1
  C  C743  1  0.57295000  0.41863000  0.58800000  1
  C  C744  1  0.57156000  0.37505000  0.61850000  1
  C  C745  1  0.64029000  0.36244000  0.64358000  1
  C  C746  1  0.64229000  0.31733000  0.67151000  1
  C  C747  1  0.71045000  0.30509000  0.69701000  1
  C  C748  1  0.69718000  0.46993000  0.67516000  1
  C  C749  1  0.74074000  0.44408000  0.70624000  1
  C  C750  1  0.70196000  0.44385000  0.75359000  1
  C  C751  1  0.61806000  0.46912000  0.77180000  1
  C  C752  1  0.57418000  0.49438000  0.74177000  1
  C  C753  1  0.61208000  0.49579000  0.69358000  1
  C  C754  1  0.56292000  0.52533000  0.66474000  1
  C  C755  1  0.58334000  0.56449000  0.55217000  1
  C  C756  1  0.54168000  0.59977000  0.52199000  1
  C  C757  1  0.57958000  0.64132000  0.51132000  1
  C  C758  1  0.55986000  0.67141000  0.55400000  1
  C  C759  1  0.59841000  0.71233000  0.54368000  1
  C  C760  1  0.58099000  0.74065000  0.58737000  1
  C  C761  1  0.78837000  0.58223000  0.54680000  1
  C  C762  1  0.80278000  0.62519000  0.54727000  1
  C  C763  1  0.78660000  0.64679000  0.58979000  1
  C  C764  1  0.75603000  0.62351000  0.63026000  1
  C  C765  1  0.74240000  0.58067000  0.62691000  1
  C  C766  1  0.80815000  0.69146000  0.59111000  1
  C  C767  1  0.63085000  0.31674000  0.34789000  1
  C  C768  1  0.62933000  0.27912000  0.32322000  1
  C  C769  1  0.67692000  0.23430000  0.32876000  1
  C  C770  1  0.72697000  0.22508000  0.35955000  1
  C  C771  1  0.72972000  0.26171000  0.38368000  1
  C  C772  1  0.68346000  0.30779000  0.37827000  1
  C  C773  1  0.69283000  0.34465000  0.40332000  1
  C  C774  1  0.63873000  0.46427000  0.40880000  1
  C  C775  1  0.65549000  0.50347000  0.42840000  1
  C  C776  1  0.72995000  0.51831000  0.39540000  1
  C  C777  1  0.74490000  0.55941000  0.41516000  1
  C  C778  1  0.82163000  0.57348000  0.38484000  1
  C  C779  1  0.83695000  0.61389000  0.40577000  1
  C  C780  1  0.92546000  0.80311000  0.58330000  1
  C  C781  1  0.88930000  0.76752000  0.58268000  1
  C  C782  1  0.93617000  0.72138000  0.58450000  1
  C  C783  1  0.01802000  0.71343000  0.58781000  1
  C  C784  1  0.04961000  0.75087000  0.58799000  1
  C  C785  1  0.90343000  0.68070000  0.58236000  1
  C  C786  1  0.31793000  0.08305000  0.41779000  1
  C  C787  1  0.34127000  0.12423000  0.41870000  1
  C  C788  1  0.39485000  0.12700000  0.44440000  1
  C  C789  1  0.42688000  0.08885000  0.47029000  1
  C  C790  1  0.40259000  0.04863000  0.47079000  1
  C  C791  1  0.34802000  0.04488000  0.44533000  1
  C  C792  1  0.32236000  0.00201000  0.45010000  1
  C  C793  1  0.19781000  0.95202000  0.41208000  1
  C  C794  1  0.16072000  0.91199000  0.41849000  1
  C  C795  1  0.19006000  0.88150000  0.37487000  1
  C  C796  1  0.28377000  0.85650000  0.36241000  1
  C  C797  1  0.31376000  0.82846000  0.31734000  1
  C  C798  1  0.40732000  0.80299000  0.30516000  1
  C  C799  1  0.37279000  0.82518000  0.46972000  1
  C  C800  1  0.44730000  0.79404000  0.44388000  1
  C  C801  1  0.45585000  0.74668000  0.44366000  1
  C  C802  1  0.39010000  0.72844000  0.46887000  1
  C  C803  1  0.31617000  0.75849000  0.49403000  1
  C  C804  1  0.30598000  0.80669000  0.49548000  1
  C  C805  1  0.22794000  0.83539000  0.52505000  1
  C  C806  1  0.13547000  0.94782000  0.56445000  1
  C  C807  1  0.06386000  0.97803000  0.59972000  1
  C  C808  1  0.09139000  0.98874000  0.64115000  1
  C  C809  1  0.11415000  0.94611000  0.67128000  1
  C  C810  1  0.14229000  0.95649000  0.71224000  1
  C  C811  1  0.16827000  0.91282000  0.74060000  1
  C  C812  1  0.33538000  0.95359000  0.58207000  1
  C  C813  1  0.35037000  0.95302000  0.62501000  1
  C  C814  1  0.37654000  0.91045000  0.64648000  1
  C  C815  1  0.38619000  0.87004000  0.62312000  1
  C  C816  1  0.36916000  0.87349000  0.58029000  1
  C  C817  1  0.39940000  0.90896000  0.69117000  1
  C  C818  1  0.97768000  0.15221000  0.31682000  1
  C  C819  1  0.95139000  0.17700000  0.27931000  1
  C  C820  1  0.00432000  0.17166000  0.23442000  1
  C  C821  1  0.08520000  0.14100000  0.22502000  1
  C  C822  1  0.11226000  0.11678000  0.26154000  1
  C  C823  1  0.06076000  0.12193000  0.30769000  1
  C  C824  1  0.09550000  0.09673000  0.34437000  1
  C  C825  1  0.04793000  0.09133000  0.46395000  1
  C  C826  1  0.08443000  0.07175000  0.50305000  1
  C  C827  1  0.12562000  0.10479000  0.51813000  1
  C  C828  1  0.16007000  0.08493000  0.55925000  1
  C  C829  1  0.20644000  0.11524000  0.57347000  1
  C  C830  1  0.24261000  0.09436000  0.61388000  1
  C  C831  1  0.50829000  0.91690000  0.80312000  1
  C  C832  1  0.47171000  0.91743000  0.76746000  1
  C  C833  1  0.52058000  0.91556000  0.72135000  1
  C  C834  1  0.60569000  0.91229000  0.71350000  1
  C  C835  1  0.63725000  0.91222000  0.75100000  1
  C  C836  1  0.48601000  0.91762000  0.68055000  1
  C  C837  1  0.81874000  0.41822000  0.08214000  1
  C  C838  1  0.88378000  0.37690000  0.08097000  1
  C  C839  1  0.96566000  0.37402000  0.05509000  1
  C  C840  1  0.98564000  0.41217000  0.02926000  1
  C  C841  1  0.92194000  0.45255000  0.02900000  1
  C  C842  1  0.83831000  0.45637000  0.05465000  1
  C  C843  1  0.77456000  0.49920000  0.04996000  1
  C  C844  1  0.56165000  0.54843000  0.08762000  1
  C  C845  1  0.49104000  0.58843000  0.08118000  1
  C  C846  1  0.44618000  0.61877000  0.12489000  1
  C  C847  1  0.50247000  0.64372000  0.13753000  1
  C  C848  1  0.45955000  0.67161000  0.18268000  1
  C  C849  1  0.51550000  0.69708000  0.19496000  1
  C  C850  1  0.66706000  0.67597000  0.03004000  1
  C  C851  1  0.68447000  0.70722000  0.05591000  1
  C  C852  1  0.64508000  0.75452000  0.05614000  1
  C  C853  1  0.58644000  0.77250000  0.03078000  1
  C  C854  1  0.56807000  0.74230000  0.00551000  1
  C  C855  1  0.60770000  0.69414000  0.00415000  1
  C  C856  1  0.58811000  0.66508000  0.97474000  1
  C  C857  1  0.64802000  0.55234000  0.93581000  1
  C  C858  1  0.64200000  0.52186000  0.90064000  1
  C  C859  1  0.72146000  0.51123000  0.85912000  1
  C  C860  1  0.73156000  0.55385000  0.82891000  1
  C  C861  1  0.81079000  0.54350000  0.78789000  1
  C  C862  1  0.82139000  0.58716000  0.75948000  1
  C  C863  1  0.87106000  0.54697000  0.91815000  1
  C  C864  1  0.92825000  0.54729000  0.87514000  1
  C  C865  1  0.93352000  0.58973000  0.85338000  1
  C  C866  1  0.87981000  0.63027000  0.87657000  1
  C  C867  1  0.82354000  0.62708000  0.91948000  1
  C  C868  1  0.99943000  0.59095000  0.80861000  1
  C  C869  1  0.44831000  0.34795000  0.18298000  1
  C  C870  1  0.40900000  0.32334000  0.22053000  1
  C  C871  1  0.41153000  0.32889000  0.26544000  1
  C  C872  1  0.45257000  0.35951000  0.27480000  1
  C  C873  1  0.49220000  0.38355000  0.23823000  1
  C  C874  1  0.49207000  0.37826000  0.19206000  1
  C  C875  1  0.53809000  0.40348000  0.15532000  1
  C  C876  1  0.60320000  0.40898000  0.03574000  1
  C  C877  1  0.65930000  0.42832000  0.99647000  1
  C  C878  1  0.74844000  0.39518000  0.98178000  1
  C  C879  1  0.80437000  0.41493000  0.94072000  1
  C  C880  1  0.89517000  0.38470000  0.92663000  1
  C  C881  1  0.95057000  0.40574000  0.88625000  1
  C  C882  1  0.22837000  0.58286000  0.69687000  1
  C  C883  1  0.15659000  0.58238000  0.73240000  1
  C  C884  1  0.15733000  0.58431000  0.77858000  1
  C  C885  1  0.23127000  0.58753000  0.78660000  1
  C  C886  1  0.30029000  0.58759000  0.74922000  1
  C  C887  1  0.08399000  0.58237000  0.81929000  1
  N  N888  1  0.30321000  0.92729000  0.00326000  1
  N  N889  1  0.31612000  0.93688000  0.04494000  1
  N  N890  1  0.25471000  0.02852000  0.11897000  1
  N  N891  1  0.29597000  0.06131000  0.09648000  1
  N  N892  1  0.09527000  0.05992000  0.08585000  1
  N  N893  1  0.56130000  0.88891000  0.89774000  1
  N  N894  1  0.48764000  0.92113000  0.92183000  1
  N  N895  1  0.61531000  0.29524000  0.08514000  1
  N  N896  1  0.23354000  0.57241000  0.49692000  1
  N  N897  1  0.29763000  0.56283000  0.45529000  1
  N  N898  1  0.40243000  0.47095000  0.38097000  1
  N  N899  1  0.45398000  0.43817000  0.40341000  1
  N  N900  1  0.24154000  0.43986000  0.41409000  1
  N  N901  1  0.34772000  0.61105000  0.60246000  1
  N  N902  1  0.33079000  0.57873000  0.57817000  1
  N  N903  1  0.99539000  0.20477000  0.41455000  1
  N  N904  1  0.73095000  0.00284000  0.57275000  1
  N  N905  1  0.75355000  0.04445000  0.56285000  1
  N  N906  1  0.78348000  0.11885000  0.47132000  1
  N  N907  1  0.85741000  0.09659000  0.43840000  1
  N  N908  1  0.65561000  0.08547000  0.44012000  1
  N  N909  1  0.95050000  0.89750000  0.61126000  1
  N  N910  1  0.90895000  0.92176000  0.57911000  1
  N  N911  1  0.41045000  0.08521000  0.20466000  1
  N  N912  1  0.30639000  0.49608000  0.92720000  1
  N  N913  1  0.36103000  0.45458000  0.93694000  1
  N  N914  1  0.37333000  0.38061000  0.02896000  1
  N  N915  1  0.39201000  0.40324000  0.06172000  1
  N  N916  1  0.18088000  0.41384000  0.05988000  1
  N  N917  1  0.45841000  0.60219000  0.88900000  1
  N  N918  1  0.40910000  0.57796000  0.92127000  1
  N  N919  1  0.70036000  0.41501000  0.29517000  1
  N  N920  1  0.69678000  0.07271000  0.99675000  1
  N  N921  1  0.68388000  0.06312000  0.95507000  1
  N  N922  1  0.74528000  0.97148000  0.88104000  1
  N  N923  1  0.70402000  0.93869000  0.90353000  1
  N  N924  1  0.90472000  0.94008000  0.91415000  1
  N  N925  1  0.43870000  0.11109000  0.10227000  1
  N  N926  1  0.51235000  0.07887000  0.07818000  1
  N  N927  1  0.38468000  0.70476000  0.91487000  1
  N  N928  1  0.76645000  0.42759000  0.50308000  1
  N  N929  1  0.70237000  0.43717000  0.54472000  1
  N  N930  1  0.59756000  0.52905000  0.61903000  1
  N  N931  1  0.54601000  0.56183000  0.59659000  1
  N  N932  1  0.75845000  0.56014000  0.58591000  1
  N  N933  1  0.65228000  0.38895000  0.39755000  1
  N  N934  1  0.66921000  0.42127000  0.42183000  1
  N  N935  1  0.00461000  0.79523000  0.58545000  1
  N  N936  1  0.26904000  0.99716000  0.42726000  1
  N  N937  1  0.24645000  0.95555000  0.43715000  1
  N  N938  1  0.21652000  0.88115000  0.52869000  1
  N  N939  1  0.14259000  0.90341000  0.56160000  1
  N  N940  1  0.34439000  0.91453000  0.55988000  1
  N  N941  1  0.04950000  0.10250000  0.38875000  1
  N  N942  1  0.09105000  0.07824000  0.42089000  1
  N  N943  1  0.58955000  0.91479000  0.79534000  1
  N  N944  1  0.69360000  0.50392000  0.07280000  1
  N  N945  1  0.63896000  0.54542000  0.06306000  1
  N  N946  1  0.62667000  0.61939000  0.97104000  1
  N  N947  1  0.60799000  0.59676000  0.93828000  1
  N  N948  1  0.81911000  0.58615000  0.94013000  1
  N  N949  1  0.54159000  0.39781000  0.11100000  1
  N  N950  1  0.59089000  0.42204000  0.07873000  1
  N  N951  1  0.29964000  0.58499000  0.70483000  1
  O  O952  1  0.33950000  0.89076000  0.91761000  1
  O  O953  1  0.17240000  0.97695000  0.03111000  1
  O  O954  1  0.44005000  0.88175000  0.01571000  1
  O  O955  1  0.15994000  0.96866000  0.13081000  1
  O  O956  1  0.28111000  0.04862000  0.18379000  1
  O  O957  1  0.26906000  0.03759000  0.03352000  1
  O  O958  1  0.71880000  0.85847000  0.84134000  1
  O  O959  1  0.49299000  0.83441000  0.93046000  1
  O  O960  1  0.55108000  0.97319000  0.87748000  1
  O  O961  1  0.14823000  0.60899000  0.58248000  1
  O  O962  1  0.18009000  0.52282000  0.46896000  1
  O  O963  1  0.33666000  0.61834000  0.48432000  1
  O  O964  1  0.26087000  0.53163000  0.36965000  1
  O  O965  1  0.51362000  0.45119000  0.31609000  1
  O  O966  1  0.34085000  0.46199000  0.46650000  1
  O  O967  1  0.41822000  0.64175000  0.65872000  1
  O  O968  1  0.25801000  0.66547000  0.56948000  1
  O  O969  1  0.40229000  0.52679000  0.62242000  1
  O  O970  1  0.73076000  0.91745000  0.60939000  1
  O  O971  1  0.65090000  0.03023000  0.52253000  1
  O  O972  1  0.82055000  0.01597000  0.61881000  1
  O  O973  1  0.62947000  0.13005000  0.53167000  1
  O  O974  1  0.82920000  0.18390000  0.45133000  1
  O  O975  1  0.80759000  0.03343000  0.46202000  1
  O  O976  1  0.07801000  0.84142000  0.64161000  1
  O  O977  1  0.82824000  0.93052000  0.66589000  1
  O  O978  1  0.02415000  0.87745000  0.52691000  1
  O  O979  1  0.25752000  0.58112000  0.89061000  1
  O  O980  1  0.20338000  0.46862000  0.97742000  1
  O  O981  1  0.45599000  0.48387000  0.88189000  1
  O  O982  1  0.29229000  0.36875000  0.96838000  1
  O  O983  1  0.46517000  0.31596000  0.04870000  1
  O  O984  1  0.30288000  0.46618000  0.03758000  1
  O  O985  1  0.55926000  0.65865000  0.85860000  1
  O  O986  1  0.42282000  0.56937000  0.83448000  1
  O  O987  1  0.42922000  0.62212000  0.97318000  1
  O  O988  1  0.66049000  0.10924000  0.08240000  1
  O  O989  1  0.82759000  0.02305000  0.96890000  1
  O  O990  1  0.55995000  0.11825000  0.98429000  1
  O  O991  1  0.84006000  0.03134000  0.86920000  1
  O  O992  1  0.71888000  0.95138000  0.81622000  1
  O  O993  1  0.73094000  0.96241000  0.96648000  1
  O  O994  1  0.28120000  0.14153000  0.15867000  1
  O  O995  1  0.50700000  0.16559000  0.06954000  1
  O  O996  1  0.44892000  0.02681000  0.12253000  1
  O  O997  1  0.85176000  0.39101000  0.41752000  1
  O  O998  1  0.81991000  0.47718000  0.53104000  1
  O  O999  1  0.66333000  0.38166000  0.51568000  1
  O  O1000  1  0.73913000  0.46837000  0.63036000  1
  O  O1001  1  0.48638000  0.54881000  0.68391000  1
  O  O1002  1  0.65915000  0.53801000  0.53350000  1
  O  O1003  1  0.58177000  0.35825000  0.34128000  1
  O  O1004  1  0.74199000  0.33453000  0.43052000  1
  O  O1005  1  0.59770000  0.47321000  0.37758000  1
  O  O1006  1  0.26924000  0.08255000  0.39062000  1
  O  O1007  1  0.34910000  0.96976000  0.47747000  1
  O  O1008  1  0.17945000  0.98403000  0.38119000  1
  O  O1009  1  0.37052000  0.86995000  0.46834000  1
  O  O1010  1  0.17079000  0.81610000  0.54867000  1
  O  O1011  1  0.19240000  0.96657000  0.53798000  1
  O  O1012  1  0.92198000  0.15858000  0.35839000  1
  O  O1013  1  0.17175000  0.06948000  0.33411000  1
  O  O1014  1  0.97584000  0.12255000  0.47310000  1
  O  O1015  1  0.74247000  0.41888000  0.10940000  1
  O  O1016  1  0.79662000  0.53138000  0.02259000  1
  O  O1017  1  0.54401000  0.51613000  0.11811000  1
  O  O1018  1  0.70771000  0.63125000  0.03163000  1
  O  O1019  1  0.53483000  0.68403000  0.95130000  1
  O  O1020  1  0.69712000  0.53381000  0.96242000  1
  O  O1021  1  0.44074000  0.34135000  0.14140000  1
  O  O1022  1  0.57718000  0.43063000  0.16552000  1
  O  O1023  1  0.57077000  0.37788000  0.02682000  1
