# generated using pymatgen
data_H19C30N4O
_symmetry_space_group_name_H-M   'P 1'
_cell_length_a   51.50980000
_cell_length_b   51.50980000
_cell_length_c   51.50980000
_cell_angle_alpha   90.00000000
_cell_angle_beta   90.00000000
_cell_angle_gamma   90.00000000
_symmetry_Int_Tables_number   1
_chemical_formula_structural   H19C30N4O
_chemical_formula_sum   'H684 C1080 N144 O36'
_cell_volume   136668.86598912
_cell_formula_units_Z   36
loop_
 _symmetry_equiv_pos_site_id
 _symmetry_equiv_pos_as_xyz
  1  'x, y, z'
loop_
 _atom_site_type_symbol
 _atom_site_label
 _atom_site_symmetry_multiplicity
 _atom_site_fract_x
 _atom_site_fract_y
 _atom_site_fract_z
 _atom_site_occupancy
  H  49  1  0.96297900  0.49723000  0.36224200  1
  H  50  1  0.96277700  0.49815200  0.40881400  1
  H  51  1  0.04245400  0.51695800  0.36222600  1
  H  52  1  0.04232400  0.51765300  0.40873200  1
  H  53  1  0.00258500  0.56038700  0.42212000  1
  H  54  1  0.00348200  0.59551400  0.45636000  1
  H  55  1  0.00263500  0.52538000  0.49318000  1
  H  56  1  0.00261600  0.49352200  0.52583400  1
  H  57  1  0.00269500  0.45565300  0.42265200  1
  H  58  1  0.00234800  0.42127200  0.45790300  1
  H  59  1  0.96333200  0.40817500  0.52049700  1
  H  60  1  0.96409300  0.36158200  0.52100600  1
  H  61  1  0.04285500  0.40919600  0.50094000  1
  H  62  1  0.04354900  0.36270800  0.50125500  1
  H  63  1  0.00292400  0.42336800  0.56262000  1
  H  64  1  0.00288600  0.45850500  0.59687900  1
  H  65  1  0.00381000  0.59763400  0.56109000  1
  H  66  1  0.00419800  0.56325600  0.59635900  1
  H  67  1  0.04432600  0.50027800  0.60833700  1
  H  68  1  0.04638000  0.49958300  0.65484900  1
  H  69  1  0.96512600  0.52077900  0.61214800  1
  H  70  1  0.96725900  0.52032100  0.65863200  1
  H  71  1  0.96464600  0.61143600  0.49878300  1
  H  72  1  0.96623600  0.65793200  0.49831900  1
  H  73  1  0.04569700  0.65547800  0.51793100  1
  H  74  1  0.04418200  0.60892900  0.51816600  1
  H  127  1  0.36218600  0.96294600  0.49720700  1
  H  128  1  0.40875700  0.96275100  0.49808800  1
  H  129  1  0.36216800  0.04240000  0.51701100  1
  H  130  1  0.40867600  0.04227300  0.51768400  1
  H  131  1  0.42206800  0.00217700  0.56037100  1
  H  132  1  0.45631900  0.00262400  0.59550300  1
  H  133  1  0.49312800  0.00235200  0.52536100  1
  H  134  1  0.52578600  0.00270300  0.49351000  1
  H  135  1  0.42260000  0.00303300  0.45564400  1
  H  136  1  0.45786300  0.00318700  0.42126400  1
  H  137  1  0.52033000  0.96527100  0.40684300  1
  H  138  1  0.52006800  0.96741500  0.36035700  1
  H  139  1  0.50026600  0.04458600  0.41058000  1
  H  140  1  0.49977100  0.04665200  0.36407300  1
  H  141  1  0.56257700  0.00408200  0.42337200  1
  H  142  1  0.59683100  0.00356500  0.45849800  1
  H  143  1  0.56104300  0.00272300  0.59763200  1
  H  144  1  0.59630800  0.00359200  0.56326600  1
  H  145  1  0.60827500  0.04441300  0.50050300  1
  H  146  1  0.65478300  0.04648600  0.49982800  1
  H  147  1  0.61211100  0.96510100  0.52056500  1
  H  148  1  0.65859600  0.96725900  0.52014600  1
  H  149  1  0.49840600  0.96281600  0.61009200  1
  H  150  1  0.49715000  0.96305200  0.65666000  1
  H  151  1  0.51669000  0.04257400  0.65674700  1
  H  152  1  0.51772700  0.04240500  0.61025500  1
  H  205  1  0.49719700  0.36217000  0.96294800  1
  H  206  1  0.49809000  0.40874400  0.96273800  1
  H  207  1  0.51699300  0.36217800  0.04240400  1
  H  208  1  0.51768100  0.40868400  0.04226100  1
  H  209  1  0.56037300  0.42206800  0.00217300  1
  H  210  1  0.59550300  0.45632100  0.00262900  1
  H  211  1  0.52535900  0.49312600  0.00233200  1
  H  212  1  0.49350500  0.52578000  0.00273800  1
  H  213  1  0.45564600  0.42259200  0.00302000  1
  H  214  1  0.42126400  0.45785100  0.00318100  1
  H  215  1  0.40684100  0.52031900  0.96526000  1
  H  216  1  0.36035500  0.52005900  0.96740100  1
  H  217  1  0.41057500  0.50026200  0.04457700  1
  H  218  1  0.36406500  0.49976700  0.04664000  1
  H  219  1  0.42336200  0.56256500  0.00405600  1
  H  220  1  0.45848600  0.59682100  0.00355900  1
  H  221  1  0.59762300  0.56104500  0.00274400  1
  H  222  1  0.56325200  0.59630800  0.00363300  1
  H  223  1  0.50048800  0.60829400  0.04442500  1
  H  224  1  0.49978700  0.65480600  0.04646300  1
  H  225  1  0.52055600  0.61208000  0.96511200  1
  H  226  1  0.52011100  0.65856600  0.96723400  1
  H  227  1  0.61008600  0.49840800  0.96281700  1
  H  228  1  0.65665600  0.49714700  0.96305400  1
  H  229  1  0.65674700  0.51668700  0.04257500  1
  H  230  1  0.61025300  0.51772900  0.04240700  1
  H  283  1  0.46635600  0.99883400  0.86088000  1
  H  284  1  0.46473100  0.99891000  0.90735800  1
  H  285  1  0.54567500  0.01899900  0.86352400  1
  H  286  1  0.54411400  0.01888300  0.91008400  1
  H  287  1  0.50334300  0.06094900  0.92240200  1
  H  288  1  0.50380400  0.09585600  0.95687700  1
  H  289  1  0.50296300  0.02548200  0.99323300  1
  H  290  1  0.50281100  0.99340800  0.02567800  1
  H  291  1  0.50404400  0.95621700  0.92225200  1
  H  292  1  0.50373000  0.92161200  0.95728100  1
  H  293  1  0.46538900  0.90684600  0.01972300  1
  H  294  1  0.46751500  0.86038100  0.01945800  1
  H  295  1  0.54470600  0.91056100  0.99966900  1
  H  296  1  0.54676200  0.86404600  0.99917600  1
  H  297  1  0.50406600  0.92303100  0.06201800  1
  H  298  1  0.50352400  0.95793500  0.09649600  1
  H  299  1  0.50372200  0.09729700  0.06161000  1
  H  300  1  0.50411000  0.06269300  0.09665800  1
  H  301  1  0.54447500  0.99984200  0.10829600  1
  H  302  1  0.54653300  0.99917400  0.15481300  1
  H  303  1  0.46519500  0.02002400  0.11209600  1
  H  304  1  0.46732100  0.01957800  0.15856100  1
  H  305  1  0.46476600  0.11148100  0.99935400  1
  H  306  1  0.46641300  0.15795700  0.99889400  1
  H  307  1  0.54587700  0.15542800  0.01849000  1
  H  308  1  0.54429100  0.10887400  0.01876000  1
  H  361  1  0.86088900  0.46637400  0.99885900  1
  H  362  1  0.90736800  0.46475500  0.99896400  1
  H  363  1  0.86350800  0.54569500  0.01901300  1
  H  364  1  0.91007000  0.54414200  0.01892800  1
  H  365  1  0.92239200  0.50338200  0.06100300  1
  H  366  1  0.95686100  0.50383300  0.09591700  1
  H  367  1  0.99322900  0.50294000  0.02554900  1
  H  368  1  0.02568100  0.50289500  0.99348200  1
  H  369  1  0.92226400  0.50408100  0.95626700  1
  H  370  1  0.95730000  0.50375500  0.92167000  1
  H  371  1  0.01966600  0.46536800  0.90691900  1
  H  372  1  0.01941200  0.46749200  0.86045600  1
  H  373  1  0.99977700  0.54472600  0.91063100  1
  H  374  1  0.99930000  0.54678400  0.86411600  1
  H  375  1  0.06203400  0.50400000  0.92311000  1
  H  376  1  0.09650500  0.50348900  0.95802000  1
  H  377  1  0.06159600  0.50374100  0.09737600  1
  H  378  1  0.09664800  0.50414900  0.06277700  1
  H  379  1  0.10829800  0.54450100  0.99990800  1
  H  380  1  0.15481500  0.54655100  0.99922600  1
  H  381  1  0.11209000  0.46522400  0.02010900  1
  H  382  1  0.15855400  0.46734200  0.01964600  1
  H  383  1  0.99932100  0.46476800  0.11154000  1
  H  384  1  0.99886300  0.46640300  0.15801600  1
  H  385  1  0.01848300  0.54586200  0.15550900  1
  H  386  1  0.01875000  0.54428900  0.10895400  1
  H  439  1  0.99830400  0.86200200  0.46283800  1
  H  440  1  0.99905100  0.90858300  0.46247900  1
  H  441  1  0.01634200  0.86242500  0.54272600  1
  H  442  1  0.01692900  0.90887200  0.54239600  1
  H  443  1  0.06046000  0.92211600  0.50306600  1
  H  444  1  0.09554400  0.95640900  0.50414900  1
  H  445  1  0.02538400  0.99313800  0.50216900  1
  H  446  1  0.99347000  0.02575800  0.50188500  1
  H  447  1  0.95574500  0.92253200  0.50244700  1
  H  448  1  0.92131900  0.95775600  0.50280600  1
  H  449  1  0.90679100  0.02046800  0.46548700  1
  H  450  1  0.86034200  0.02021400  0.46768200  1
  H  451  1  0.91062500  0.99984900  0.54465200  1
  H  452  1  0.86410800  0.99939700  0.54678400  1
  H  453  1  0.92332000  0.06247400  0.50444600  1
  H  454  1  0.95839900  0.09677000  0.50326600  1
  H  455  1  0.09755600  0.06113100  0.50266800  1
  H  456  1  0.06312200  0.09637300  0.50231600  1
  H  457  1  0.00210100  0.10937400  0.54282700  1
  H  458  1  0.00204700  0.15578300  0.54379200  1
  H  459  1  0.01940000  0.11097500  0.46280400  1
  H  460  1  0.01947800  0.15756700  0.46378400  1
  H  461  1  0.11150100  0.99852500  0.46487300  1
  H  462  1  0.15796100  0.99808100  0.46657600  1
  H  463  1  0.15535200  0.01836500  0.54586500  1
  H  464  1  0.10879500  0.01864300  0.54421700  1
  H  474  1  0.03228800  0.52870400  0.22786700  1
  H  475  1  0.03912500  0.53660500  0.27275400  1
  H  477  1  0.98035400  0.48272800  0.29143000  1
  H  479  1  0.97681900  0.45318600  0.24493600  1
  H  481  1  0.03091100  0.52565200  0.31789300  1
  H  483  1  0.98742800  0.48037300  0.20092100  1
  H  489  1  0.98273400  0.52996000  0.79249100  1
  H  490  1  0.97420400  0.53857600  0.74803300  1
  H  492  1  0.03313000  0.48602600  0.72630700  1
  H  494  1  0.03883300  0.45568600  0.77182700  1
  H  496  1  0.98118700  0.52896000  0.70244700  1
  H  498  1  0.02833800  0.48121200  0.81695200  1
  H  504  1  0.22775300  0.03201700  0.52880100  1
  H  505  1  0.27263600  0.03898000  0.53664000  1
  H  507  1  0.29140100  0.98030700  0.48268900  1
  H  509  1  0.24488400  0.97667700  0.45321300  1
  H  511  1  0.31779400  0.03092000  0.52556800  1
  H  513  1  0.20088800  0.98710000  0.48047600  1
  H  519  1  0.79246900  0.98303700  0.53007600  1
  H  520  1  0.74802100  0.97437100  0.53862800  1
  H  522  1  0.72619400  0.03317400  0.48598600  1
  H  524  1  0.77174100  0.03898900  0.45571200  1
  H  526  1  0.70242000  0.98116500  0.52886500  1
  H  528  1  0.81684300  0.02874600  0.48136500  1
  H  534  1  0.52874600  0.22780900  0.03225800  1
  H  535  1  0.53662800  0.27270000  0.03909300  1
  H  537  1  0.48271200  0.29135100  0.98035200  1
  H  539  1  0.45319200  0.24482700  0.97683600  1
  H  541  1  0.52565600  0.31783500  0.03088100  1
  H  543  1  0.48044700  0.20083800  0.98736400  1
  H  549  1  0.53003200  0.79241500  0.98277900  1
  H  550  1  0.53862000  0.74795500  0.97423700  1
  H  552  1  0.48595800  0.72624500  0.03306900  1
  H  554  1  0.45565100  0.77180700  0.03875300  1
  H  556  1  0.52890900  0.70237200  0.98115600  1
  H  558  1  0.48130700  0.81689600  0.02843300  1
  H  564  1  0.52869800  0.03238300  0.79103100  1
  H  565  1  0.53645200  0.03924400  0.74612500  1
  H  567  1  0.48250100  0.98050000  0.72758600  1
  H  569  1  0.45311400  0.97698600  0.77430000  1
  H  571  1  0.52546900  0.03097100  0.70102200  1
  H  573  1  0.48077700  0.98708500  0.81812600  1
  H  579  1  0.52987200  0.98290300  0.22647400  1
  H  580  1  0.53845700  0.97434300  0.27092500  1
  H  582  1  0.48588700  0.03324400  0.29266300  1
  H  584  1  0.45557800  0.03897300  0.24708300  1
  H  586  1  0.52868000  0.98119500  0.31650300  1
  H  588  1  0.48130500  0.02875200  0.20199300  1
  H  594  1  0.03472200  0.22906700  0.48423600  1
  H  595  1  0.04019600  0.27435200  0.47742000  1
  H  597  1  0.98386200  0.29003600  0.53475100  1
  H  599  1  0.95714100  0.23976600  0.53711200  1
  H  601  1  0.03180500  0.31886600  0.49040200  1
  H  603  1  0.99474000  0.19991400  0.53491400  1
  H  609  1  0.98127400  0.79124800  0.48222500  1
  H  610  1  0.97372600  0.74635800  0.47493300  1
  H  612  1  0.02946400  0.72749900  0.53189100  1
  H  614  1  0.05847600  0.77640400  0.53473200  1
  H  616  1  0.97988200  0.70138200  0.48766700  1
  H  618  1  0.02277000  0.81806600  0.53304100  1
  H  624  1  0.22646800  0.52983500  0.98287200  1
  H  625  1  0.27092000  0.53842400  0.97430500  1
  H  627  1  0.29266500  0.48591400  0.03325700  1
  H  629  1  0.24711000  0.45559900  0.03900400  1
  H  631  1  0.31650100  0.52868200  0.98118300  1
  H  633  1  0.20200400  0.48125400  0.02869500  1
  H  639  1  0.79102500  0.52868800  0.03240000  1
  H  640  1  0.74611900  0.53644000  0.03925700  1
  H  642  1  0.72758800  0.48251000  0.98049000  1
  H  644  1  0.77430000  0.45312600  0.97698000  1
  H  646  1  0.70102100  0.52546200  0.03097500  1
  H  648  1  0.81813000  0.48078700  0.98708900  1
  H  697  1  0.09887550  0.63312600  0.53696600  1
  H  698  1  0.09867350  0.63404800  0.58353800  1
  H  699  1  0.17835000  0.65285400  0.53695000  1
  H  700  1  0.17822000  0.65354900  0.58345600  1
  H  701  1  0.13848100  0.69628300  0.59684400  1
  H  702  1  0.13937800  0.73141000  0.63108400  1
  H  703  1  0.13853100  0.66127600  0.66790400  1
  H  704  1  0.13851200  0.62941800  0.70055800  1
  H  705  1  0.13859100  0.59154900  0.59737600  1
  H  706  1  0.13824400  0.55716800  0.63262700  1
  H  707  1  0.09922850  0.54407100  0.69522100  1
  H  708  1  0.09998950  0.49747800  0.69573000  1
  H  709  1  0.17875100  0.54509200  0.67566400  1
  H  710  1  0.17944500  0.49860400  0.67597900  1
  H  711  1  0.13882000  0.55926400  0.73734400  1
  H  712  1  0.13878200  0.59440100  0.77160300  1
  H  713  1  0.13970600  0.73353000  0.73581400  1
  H  714  1  0.14009400  0.69915200  0.77108300  1
  H  715  1  0.18022200  0.63617400  0.78306100  1
  H  716  1  0.18227600  0.63547900  0.82957300  1
  H  717  1  0.10102200  0.65667500  0.78687200  1
  H  718  1  0.10315500  0.65621700  0.83335600  1
  H  719  1  0.10054200  0.74733200  0.67350700  1
  H  720  1  0.10213200  0.79382800  0.67304300  1
  H  721  1  0.18159300  0.79137400  0.69265500  1
  H  722  1  0.18007800  0.74482500  0.69289000  1
  H  775  1  0.49808200  0.09884250  0.67193100  1
  H  776  1  0.54465300  0.09864750  0.67281200  1
  H  777  1  0.49806400  0.17829600  0.69173500  1
  H  778  1  0.54457200  0.17816900  0.69240800  1
  H  779  1  0.55796400  0.13807300  0.73509500  1
  H  780  1  0.59221500  0.13852000  0.77022700  1
  H  781  1  0.62902400  0.13824800  0.70008500  1
  H  782  1  0.66168200  0.13859900  0.66823400  1
  H  783  1  0.55849600  0.13892900  0.63036800  1
  H  784  1  0.59375900  0.13908300  0.59598800  1
  H  785  1  0.65622600  0.10116700  0.58156700  1
  H  786  1  0.65596400  0.10331100  0.53508100  1
  H  787  1  0.63616200  0.18048200  0.58530400  1
  H  788  1  0.63566700  0.18254800  0.53879700  1
  H  789  1  0.69847300  0.13997800  0.59809600  1
  H  790  1  0.73272700  0.13946100  0.63322200  1
  H  791  1  0.69693900  0.13861900  0.77235600  1
  H  792  1  0.73220400  0.13948800  0.73799000  1
  H  793  1  0.74417100  0.18030900  0.67522700  1
  H  794  1  0.79067900  0.18238200  0.67455200  1
  H  795  1  0.74800700  0.10099700  0.69528900  1
  H  796  1  0.79449200  0.10315500  0.69487000  1
  H  797  1  0.63430200  0.09871250  0.78481600  1
  H  798  1  0.63304600  0.09894850  0.83138400  1
  H  799  1  0.65258600  0.17847000  0.83147100  1
  H  800  1  0.65362300  0.17830100  0.78497900  1
  H  853  1  0.63309300  0.49806600  0.13767200  1
  H  854  1  0.63398600  0.54464000  0.13746200  1
  H  855  1  0.65288900  0.49807400  0.21712800  1
  H  856  1  0.65357700  0.54458000  0.21698500  1
  H  857  1  0.69626900  0.55796400  0.17689700  1
  H  858  1  0.73139900  0.59221700  0.17735300  1
  H  859  1  0.66125500  0.62902200  0.17705600  1
  H  860  1  0.62940100  0.66167600  0.17746200  1
  H  861  1  0.59154200  0.55848800  0.17774400  1
  H  862  1  0.55716000  0.59374700  0.17790500  1
  H  863  1  0.54273700  0.65621500  0.13998400  1
  H  864  1  0.49625100  0.65595500  0.14212500  1
  H  865  1  0.54647100  0.63615800  0.21930100  1
  H  866  1  0.49996100  0.63566300  0.22136400  1
  H  867  1  0.55925800  0.69846100  0.17878000  1
  H  868  1  0.59438200  0.73271700  0.17828300  1
  H  869  1  0.73351900  0.69694100  0.17746800  1
  H  870  1  0.69914800  0.73220400  0.17835700  1
  H  871  1  0.63638400  0.74419000  0.21914900  1
  H  872  1  0.63568300  0.79070200  0.22118700  1
  H  873  1  0.65645200  0.74797600  0.13983600  1
  H  874  1  0.65600700  0.79446200  0.14195800  1
  H  875  1  0.74598200  0.63430400  0.13754100  1
  H  876  1  0.79255200  0.63304300  0.13777800  1
  H  877  1  0.79264300  0.65258300  0.21729900  1
  H  878  1  0.74614900  0.65362500  0.21713100  1
  H  931  1  0.60225200  0.13473000  0.03560400  1
  H  932  1  0.60062700  0.13480600  0.08208200  1
  H  933  1  0.68157100  0.15489500  0.03824800  1
  H  934  1  0.68001000  0.15477900  0.08480800  1
  H  935  1  0.63923900  0.19684500  0.09712600  1
  H  936  1  0.63970000  0.23175200  0.13160100  1
  H  937  1  0.63885900  0.16137800  0.16795700  1
  H  938  1  0.63870700  0.12930400  0.20040200  1
  H  939  1  0.63994000  0.09211350  0.09697600  1
  H  940  1  0.63962600  0.05750850  0.13200500  1
  H  941  1  0.60128500  0.04274250  0.19444700  1
  H  942  1  0.60341100  0.99627700  0.19418200  1
  H  943  1  0.68060200  0.04645750  0.17439300  1
  H  944  1  0.68265800  0.99994200  0.17390000  1
  H  945  1  0.63996200  0.05892750  0.23674200  1
  H  946  1  0.63942000  0.09383150  0.27122000  1
  H  947  1  0.63961800  0.23319300  0.23633400  1
  H  948  1  0.64000600  0.19858900  0.27138200  1
  H  949  1  0.68037100  0.13573800  0.28302000  1
  H  950  1  0.68242900  0.13507000  0.32953700  1
  H  951  1  0.60109100  0.15592000  0.28682000  1
  H  952  1  0.60321700  0.15547400  0.33328500  1
  H  953  1  0.60066200  0.24737700  0.17407800  1
  H  954  1  0.60230900  0.29385300  0.17361800  1
  H  955  1  0.68177300  0.29132400  0.19321400  1
  H  956  1  0.68018700  0.24477000  0.19348400  1
  H  1009  1  0.99678500  0.60227000  0.17358300  1
  H  1010  1  0.04326450  0.60065100  0.17368800  1
  H  1011  1  0.99940400  0.68159100  0.19373700  1
  H  1012  1  0.04596650  0.68003800  0.19365200  1
  H  1013  1  0.05828850  0.63927800  0.23572700  1
  H  1014  1  0.09275750  0.63972900  0.27064100  1
  H  1015  1  0.12912500  0.63883600  0.20027300  1
  H  1016  1  0.16157700  0.63879100  0.16820600  1
  H  1017  1  0.05816050  0.63997700  0.13099100  1
  H  1018  1  0.09319650  0.63965100  0.09639400  1
  H  1019  1  0.15556200  0.60126400  0.08164300  1
  H  1020  1  0.15530800  0.60338800  0.03518000  1
  H  1021  1  0.13567300  0.68062200  0.08535500  1
  H  1022  1  0.13519600  0.68268000  0.03884000  1
  H  1023  1  0.19793000  0.63989600  0.09783400  1
  H  1024  1  0.23240100  0.63938500  0.13274400  1
  H  1025  1  0.19749200  0.63963700  0.27210000  1
  H  1026  1  0.23254400  0.64004500  0.23750100  1
  H  1027  1  0.24419400  0.68039700  0.17463200  1
  H  1028  1  0.29071100  0.68244700  0.17395000  1
  H  1029  1  0.24798600  0.60112000  0.19483300  1
  H  1030  1  0.29445000  0.60323800  0.19437000  1
  H  1031  1  0.13521700  0.60066400  0.28626400  1
  H  1032  1  0.13475900  0.60229900  0.33274000  1
  H  1033  1  0.15437900  0.68175800  0.33023300  1
  H  1034  1  0.15464600  0.68018500  0.28367800  1
  H  1087  1  0.13420000  0.99789800  0.63756200  1
  H  1088  1  0.13494700  0.04447950  0.63720300  1
  H  1089  1  0.15223800  0.99832100  0.71745000  1
  H  1090  1  0.15282500  0.04476850  0.71712000  1
  H  1091  1  0.19635600  0.05801250  0.67779000  1
  H  1092  1  0.23144000  0.09230550  0.67887300  1
  H  1093  1  0.16128000  0.12903400  0.67689300  1
  H  1094  1  0.12936600  0.16165400  0.67660900  1
  H  1095  1  0.09164150  0.05842850  0.67717100  1
  H  1096  1  0.05721550  0.09365250  0.67753000  1
  H  1097  1  0.04268750  0.15636400  0.64021100  1
  H  1098  1  0.99623800  0.15611000  0.64240600  1
  H  1099  1  0.04652150  0.13574500  0.71937600  1
  H  1100  1  0.00000447  0.13529300  0.72150800  1
  H  1101  1  0.05921650  0.19837000  0.67917000  1
  H  1102  1  0.09429550  0.23266600  0.67799000  1
  H  1103  1  0.23345200  0.19702700  0.67739200  1
  H  1104  1  0.19901800  0.23226900  0.67704000  1
  H  1105  1  0.13799700  0.24527000  0.71755100  1
  H  1106  1  0.13794300  0.29167900  0.71851600  1
  H  1107  1  0.15529600  0.24687100  0.63752800  1
  H  1108  1  0.15537400  0.29346300  0.63850800  1
  H  1109  1  0.24739700  0.13442100  0.63959700  1
  H  1110  1  0.29385700  0.13397700  0.64130000  1
  H  1111  1  0.29124800  0.15426100  0.72058900  1
  H  1112  1  0.24469100  0.15453900  0.71894100  1
  H  1122  1  0.16818400  0.66460000  0.40259100  1
  H  1123  1  0.17502100  0.67250100  0.44747800  1
  H  1125  1  0.11625000  0.61862400  0.46615400  1
  H  1127  1  0.11271500  0.58908200  0.41966000  1
  H  1129  1  0.16680700  0.66154800  0.49261700  1
  H  1131  1  0.12332400  0.61626900  0.37564500  1
  H  1137  1  0.11863000  0.66585600  0.96721500  1
  H  1138  1  0.11010000  0.67447200  0.92275700  1
  H  1140  1  0.16902600  0.62192200  0.90103100  1
  H  1142  1  0.17472900  0.59158200  0.94655100  1
  H  1144  1  0.11708300  0.66485600  0.87717100  1
  H  1146  1  0.16423400  0.61710800  0.99167600  1
  H  1152  1  0.36364900  0.16791300  0.70352500  1
  H  1153  1  0.40853200  0.17487600  0.71136400  1
  H  1155  1  0.42729700  0.11620300  0.65741300  1
  H  1157  1  0.38078000  0.11257300  0.62793700  1
  H  1159  1  0.45369000  0.16681600  0.70029200  1
  H  1161  1  0.33678400  0.12299600  0.65520000  1
  H  1167  1  0.92836500  0.11893300  0.70480000  1
  H  1168  1  0.88391700  0.11026700  0.71335200  1
  H  1170  1  0.86209000  0.16907000  0.66071000  1
  H  1172  1  0.90763700  0.17488500  0.63043600  1
  H  1174  1  0.83831600  0.11706100  0.70358900  1
  H  1176  1  0.95273900  0.16464200  0.65608900  1
  H  1182  1  0.66464200  0.36370500  0.20698200  1
  H  1183  1  0.67252400  0.40859600  0.21381700  1
  H  1185  1  0.61860800  0.42724700  0.15507600  1
  H  1187  1  0.58908800  0.38072300  0.15156000  1
  H  1189  1  0.66155200  0.45373100  0.20560500  1
  H  1191  1  0.61634300  0.33673400  0.16208800  1
  H  1197  1  0.66592800  0.92831100  0.15750300  1
  H  1198  1  0.67451600  0.88385100  0.14896100  1
  H  1200  1  0.62185400  0.86214100  0.20779300  1
  H  1202  1  0.59154700  0.90770300  0.21347700  1
  H  1204  1  0.66480500  0.83826800  0.15588000  1
  H  1206  1  0.61720300  0.95279200  0.20315700  1
  H  1212  1  0.66459400  0.16827900  0.96575500  1
  H  1213  1  0.67234800  0.17514000  0.92084900  1
  H  1215  1  0.61839700  0.11639600  0.90231000  1
  H  1217  1  0.58901000  0.11288200  0.94902400  1
  H  1219  1  0.66136500  0.16686700  0.87574600  1
  H  1221  1  0.61667300  0.12298100  0.99285000  1
  H  1227  1  0.66576800  0.11879900  0.40119800  1
  H  1228  1  0.67435300  0.11023900  0.44564900  1
  H  1230  1  0.62178300  0.16914000  0.46738700  1
  H  1232  1  0.59147400  0.17486900  0.42180700  1
  H  1234  1  0.66457600  0.11709100  0.49122700  1
  H  1236  1  0.61720100  0.16464800  0.37671700  1
  H  1242  1  0.17061800  0.36496300  0.65896000  1
  H  1243  1  0.17609200  0.41024800  0.65214400  1
  H  1245  1  0.11975800  0.42593200  0.70947500  1
  H  1247  1  0.09303750  0.37566200  0.71183600  1
  H  1249  1  0.16770100  0.45476200  0.66512600  1
  H  1251  1  0.13063600  0.33581000  0.70963800  1
  H  1257  1  0.11717000  0.92714400  0.65694900  1
  H  1258  1  0.10962200  0.88225400  0.64965700  1
  H  1260  1  0.16536000  0.86339500  0.70661500  1
  H  1262  1  0.19437200  0.91230000  0.70945600  1
  H  1264  1  0.11577800  0.83727800  0.66239100  1
  H  1266  1  0.15866600  0.95396200  0.70776500  1
  H  1272  1  0.36236400  0.66573100  0.15759600  1
  H  1273  1  0.40681600  0.67432000  0.14902900  1
  H  1275  1  0.42856100  0.62181000  0.20798100  1
  H  1277  1  0.38300600  0.59149500  0.21372800  1
  H  1279  1  0.45239700  0.66457800  0.15590700  1
  H  1281  1  0.33790000  0.61715000  0.20341900  1
  H  1287  1  0.92692100  0.66458400  0.20712400  1
  H  1288  1  0.88201500  0.67233600  0.21398100  1
  H  1290  1  0.86348400  0.61840600  0.15521400  1
  H  1292  1  0.91019600  0.58902200  0.15170400  1
  H  1294  1  0.83691700  0.66135800  0.20569900  1
  H  1296  1  0.95402600  0.61668300  0.16181300  1
  H  1345  1  0.23477200  0.76902300  0.71169000  1
  H  1346  1  0.23457000  0.76994500  0.75826200  1
  H  1347  1  0.31424700  0.78875100  0.71167400  1
  H  1348  1  0.31411700  0.78944600  0.75818000  1
  H  1349  1  0.27437800  0.83218000  0.77156800  1
  H  1350  1  0.27527500  0.86730700  0.80580800  1
  H  1351  1  0.27442800  0.79717300  0.84262800  1
  H  1352  1  0.27440900  0.76531500  0.87528200  1
  H  1353  1  0.27448800  0.72744600  0.77210000  1
  H  1354  1  0.27414100  0.69306500  0.80735100  1
  H  1355  1  0.23512500  0.67996800  0.86994500  1
  H  1356  1  0.23588600  0.63337500  0.87045400  1
  H  1357  1  0.31464800  0.68098900  0.85038800  1
  H  1358  1  0.31534200  0.63450100  0.85070300  1
  H  1359  1  0.27471700  0.69516100  0.91206800  1
  H  1360  1  0.27467900  0.73029800  0.94632700  1
  H  1361  1  0.27560300  0.86942700  0.91053800  1
  H  1362  1  0.27599100  0.83504900  0.94580700  1
  H  1363  1  0.31611900  0.77207100  0.95778500  1
  H  1364  1  0.31817300  0.77137600  0.00429707  1
  H  1365  1  0.23691900  0.79257200  0.96159600  1
  H  1366  1  0.23905200  0.79211400  0.00808007  1
  H  1367  1  0.23643900  0.88322900  0.84823100  1
  H  1368  1  0.23802900  0.92972500  0.84776700  1
  H  1369  1  0.31749000  0.92727100  0.86737900  1
  H  1370  1  0.31597500  0.88072200  0.86761400  1
  H  1423  1  0.63397900  0.23473900  0.84665500  1
  H  1424  1  0.68055000  0.23454400  0.84753600  1
  H  1425  1  0.63396100  0.31419300  0.86645900  1
  H  1426  1  0.68046900  0.31406600  0.86713200  1
  H  1427  1  0.69386100  0.27397000  0.90981900  1
  H  1428  1  0.72811200  0.27441700  0.94495100  1
  H  1429  1  0.76492100  0.27414500  0.87480900  1
  H  1430  1  0.79757900  0.27449600  0.84295800  1
  H  1431  1  0.69439300  0.27482600  0.80509200  1
  H  1432  1  0.72965600  0.27498000  0.77071200  1
  H  1433  1  0.79212300  0.23706400  0.75629100  1
  H  1434  1  0.79186100  0.23920800  0.70980500  1
  H  1435  1  0.77205900  0.31637900  0.76002800  1
  H  1436  1  0.77156400  0.31844500  0.71352100  1
  H  1437  1  0.83437000  0.27587500  0.77282000  1
  H  1438  1  0.86862400  0.27535800  0.80794600  1
  H  1439  1  0.83283600  0.27451600  0.94708000  1
  H  1440  1  0.86810100  0.27538500  0.91271400  1
  H  1441  1  0.88006800  0.31620600  0.84995100  1
  H  1442  1  0.92657600  0.31827900  0.84927600  1
  H  1443  1  0.88390400  0.23689400  0.87001300  1
  H  1444  1  0.93038900  0.23905200  0.86959400  1
  H  1445  1  0.77019900  0.23460900  0.95954000  1
  H  1446  1  0.76894300  0.23484500  0.00610807  1
  H  1447  1  0.78848300  0.31436700  0.00619507  1
  H  1448  1  0.78952000  0.31419800  0.95970300  1
  H  1501  1  0.76899000  0.63396300  0.31239600  1
  H  1502  1  0.76988300  0.68053700  0.31218600  1
  H  1503  1  0.78878600  0.63397100  0.39185200  1
  H  1504  1  0.78947400  0.68047700  0.39170900  1
  H  1505  1  0.83216600  0.69386100  0.35162100  1
  H  1506  1  0.86729600  0.72811400  0.35207700  1
  H  1507  1  0.79715200  0.76491900  0.35178000  1
  H  1508  1  0.76529800  0.79757300  0.35218600  1
  H  1509  1  0.72743900  0.69438500  0.35246800  1
  H  1510  1  0.69305700  0.72964400  0.35262900  1
  H  1511  1  0.67863400  0.79211200  0.31470800  1
  H  1512  1  0.63214800  0.79185200  0.31684900  1
  H  1513  1  0.68236800  0.77205500  0.39402500  1
  H  1514  1  0.63585800  0.77156000  0.39608800  1
  H  1515  1  0.69515500  0.83435800  0.35350400  1
  H  1516  1  0.73027900  0.86861400  0.35300700  1
  H  1517  1  0.86941600  0.83283800  0.35219200  1
  H  1518  1  0.83504500  0.86810100  0.35308100  1
  H  1519  1  0.77228100  0.88008700  0.39387300  1
  H  1520  1  0.77158000  0.92659900  0.39591100  1
  H  1521  1  0.79234900  0.88387300  0.31456000  1
  H  1522  1  0.79190400  0.93035900  0.31668200  1
  H  1523  1  0.88187900  0.77020100  0.31226500  1
  H  1524  1  0.92844900  0.76894000  0.31250200  1
  H  1525  1  0.92854000  0.78848000  0.39202300  1
  H  1526  1  0.88204600  0.78952200  0.39185500  1
  H  1579  1  0.73814900  0.27062700  0.21032800  1
  H  1580  1  0.73652400  0.27070300  0.25680600  1
  H  1581  1  0.81746800  0.29079200  0.21297200  1
  H  1582  1  0.81590700  0.29067600  0.25953200  1
  H  1583  1  0.77513600  0.33274200  0.27185000  1
  H  1584  1  0.77559700  0.36764900  0.30632500  1
  H  1585  1  0.77475600  0.29727500  0.34268100  1
  H  1586  1  0.77460400  0.26520100  0.37512600  1
  H  1587  1  0.77583700  0.22801000  0.27170000  1
  H  1588  1  0.77552300  0.19340500  0.30672900  1
  H  1589  1  0.73718200  0.17863900  0.36917100  1
  H  1590  1  0.73930800  0.13217400  0.36890600  1
  H  1591  1  0.81649900  0.18235400  0.34911700  1
  H  1592  1  0.81855500  0.13583900  0.34862400  1
  H  1593  1  0.77585900  0.19482400  0.41146600  1
  H  1594  1  0.77531700  0.22972800  0.44594400  1
  H  1595  1  0.77551500  0.36909000  0.41105800  1
  H  1596  1  0.77590300  0.33448600  0.44610600  1
  H  1597  1  0.81626800  0.27163500  0.45774400  1
  H  1598  1  0.81832600  0.27096700  0.50426100  1
  H  1599  1  0.73698800  0.29181700  0.46154400  1
  H  1600  1  0.73911400  0.29137100  0.50800900  1
  H  1601  1  0.73655900  0.38327400  0.34880200  1
  H  1602  1  0.73820600  0.42975000  0.34834200  1
  H  1603  1  0.81767000  0.42722100  0.36793800  1
  H  1604  1  0.81608400  0.38066700  0.36820800  1
  H  1657  1  0.13268200  0.73816700  0.34830700  1
  H  1658  1  0.17916100  0.73654800  0.34841200  1
  H  1659  1  0.13530100  0.81748800  0.36846100  1
  H  1660  1  0.18186300  0.81593500  0.36837600  1
  H  1661  1  0.19418500  0.77517500  0.41045100  1
  H  1662  1  0.22865400  0.77562600  0.44536500  1
  H  1663  1  0.26502200  0.77473300  0.37499700  1
  H  1664  1  0.29747400  0.77468800  0.34293000  1
  H  1665  1  0.19405700  0.77587400  0.30571500  1
  H  1666  1  0.22909300  0.77554800  0.27111800  1
  H  1667  1  0.29145900  0.73716100  0.25636700  1
  H  1668  1  0.29120500  0.73928500  0.20990400  1
  H  1669  1  0.27157000  0.81651900  0.26007900  1
  H  1670  1  0.27109300  0.81857700  0.21356400  1
  H  1671  1  0.33382700  0.77579300  0.27255800  1
  H  1672  1  0.36829800  0.77528200  0.30746800  1
  H  1673  1  0.33338900  0.77553400  0.44682400  1
  H  1674  1  0.36844100  0.77594200  0.41222500  1
  H  1675  1  0.38009100  0.81629400  0.34935600  1
  H  1676  1  0.42660800  0.81834400  0.34867400  1
  H  1677  1  0.38388300  0.73701700  0.36955700  1
  H  1678  1  0.43034700  0.73913500  0.36909400  1
  H  1679  1  0.27111400  0.73656100  0.46098800  1
  H  1680  1  0.27065600  0.73819600  0.50746400  1
  H  1681  1  0.29027600  0.81765500  0.50495700  1
  H  1682  1  0.29054300  0.81608200  0.45840200  1
  H  1735  1  0.27009700  0.13379500  0.81228600  1
  H  1736  1  0.27084400  0.18037600  0.81192700  1
  H  1737  1  0.28813500  0.13421800  0.89217400  1
  H  1738  1  0.28872200  0.18066500  0.89184400  1
  H  1739  1  0.33225300  0.19390900  0.85251400  1
  H  1740  1  0.36733700  0.22820200  0.85359700  1
  H  1741  1  0.29717700  0.26493100  0.85161700  1
  H  1742  1  0.26526300  0.29755100  0.85133300  1
  H  1743  1  0.22753800  0.19432500  0.85189500  1
  H  1744  1  0.19311200  0.22954900  0.85225400  1
  H  1745  1  0.17858400  0.29226100  0.81493500  1
  H  1746  1  0.13213500  0.29200700  0.81713000  1
  H  1747  1  0.18241800  0.27164200  0.89410000  1
  H  1748  1  0.13590100  0.27119000  0.89623200  1
  H  1749  1  0.19511300  0.33426700  0.85389400  1
  H  1750  1  0.23019200  0.36856300  0.85271400  1
  H  1751  1  0.36934900  0.33292400  0.85211600  1
  H  1752  1  0.33491500  0.36816600  0.85176400  1
  H  1753  1  0.27389400  0.38116700  0.89227500  1
  H  1754  1  0.27384000  0.42757600  0.89324000  1
  H  1755  1  0.29119300  0.38276800  0.81225200  1
  H  1756  1  0.29127100  0.42936000  0.81323200  1
  H  1757  1  0.38329400  0.27031800  0.81432100  1
  H  1758  1  0.42975400  0.26987400  0.81602400  1
  H  1759  1  0.42714500  0.29015800  0.89531300  1
  H  1760  1  0.38058800  0.29043600  0.89366500  1
  H  1770  1  0.30408100  0.80049700  0.57731500  1
  H  1771  1  0.31091800  0.80839800  0.62220200  1
  H  1773  1  0.25214700  0.75452100  0.64087800  1
  H  1775  1  0.24861200  0.72497900  0.59438400  1
  H  1777  1  0.30270400  0.79744500  0.66734100  1
  H  1779  1  0.25922100  0.75216600  0.55036900  1
  H  1785  1  0.25452700  0.80175300  0.14193900  1
  H  1786  1  0.24599700  0.81036900  0.09748110  1
  H  1788  1  0.30492300  0.75781900  0.07575510  1
  H  1790  1  0.31062600  0.72747900  0.12127500  1
  H  1792  1  0.25298000  0.80075300  0.05189510  1
  H  1794  1  0.30013100  0.75300500  0.16640000  1
  H  1800  1  0.49954600  0.30381000  0.87824900  1
  H  1801  1  0.54442900  0.31077300  0.88608800  1
  H  1803  1  0.56319400  0.25210000  0.83213700  1
  H  1805  1  0.51667700  0.24847000  0.80266100  1
  H  1807  1  0.58958700  0.30271300  0.87501600  1
  H  1809  1  0.47268100  0.25889300  0.82992400  1
  H  1815  1  0.06426190  0.25483000  0.87952400  1
  H  1816  1  0.01981390  0.24616400  0.88807600  1
  H  1818  1  0.99798700  0.30496700  0.83543400  1
  H  1820  1  0.04353390  0.31078200  0.80516000  1
  H  1822  1  0.97421300  0.25295800  0.87831300  1
  H  1824  1  0.08863590  0.30053900  0.83081300  1
  H  1830  1  0.80053900  0.49960200  0.38170600  1
  H  1831  1  0.80842100  0.54449300  0.38854100  1
  H  1833  1  0.75450500  0.56314400  0.32980000  1
  H  1835  1  0.72498500  0.51662000  0.32628400  1
  H  1837  1  0.79744900  0.58962800  0.38032900  1
  H  1839  1  0.75224000  0.47263100  0.33681200  1
  H  1845  1  0.80182500  0.06420790  0.33222700  1
  H  1846  1  0.81041300  0.01974790  0.32368500  1
  H  1848  1  0.75775100  0.99803800  0.38251700  1
  H  1850  1  0.72744400  0.04359990  0.38820100  1
  H  1852  1  0.80070200  0.97416500  0.33060400  1
  H  1854  1  0.75310000  0.08868890  0.37788100  1
  H  1860  1  0.80049100  0.30417600  0.14047900  1
  H  1861  1  0.80824500  0.31103700  0.09557310  1
  H  1863  1  0.75429400  0.25229300  0.07703410  1
  H  1865  1  0.72490700  0.24877900  0.12374800  1
  H  1867  1  0.79726200  0.30276400  0.05047010  1
  H  1869  1  0.75257000  0.25887800  0.16757400  1
  H  1875  1  0.80166500  0.25469600  0.57592200  1
  H  1876  1  0.81025000  0.24613600  0.62037300  1
  H  1878  1  0.75768000  0.30503700  0.64211100  1
  H  1880  1  0.72737100  0.31076600  0.59653100  1
  H  1882  1  0.80047300  0.25298800  0.66595100  1
  H  1884  1  0.75309800  0.30054500  0.55144100  1
  H  1890  1  0.30651500  0.50086000  0.83368400  1
  H  1891  1  0.31198900  0.54614500  0.82686800  1
  H  1893  1  0.25565500  0.56182900  0.88419900  1
  H  1895  1  0.22893400  0.51155900  0.88656000  1
  H  1897  1  0.30359800  0.59065900  0.83985000  1
  H  1899  1  0.26653300  0.47170700  0.88436200  1
  H  1905  1  0.25306700  0.06304090  0.83167300  1
  H  1906  1  0.24551900  0.01815090  0.82438100  1
  H  1908  1  0.30125700  0.99929200  0.88133900  1
  H  1910  1  0.33026900  0.04819690  0.88418000  1
  H  1912  1  0.25167500  0.97317500  0.83711500  1
  H  1914  1  0.29456300  0.08985890  0.88248900  1
  H  1920  1  0.49826100  0.80162800  0.33232000  1
  H  1921  1  0.54271300  0.81021700  0.32375300  1
  H  1923  1  0.56445800  0.75770700  0.38270500  1
  H  1925  1  0.51890300  0.72739200  0.38845200  1
  H  1927  1  0.58829400  0.80047500  0.33063100  1
  H  1929  1  0.47379700  0.75304700  0.37814300  1
  H  1935  1  0.06281790  0.80048100  0.38184800  1
  H  1936  1  0.01791190  0.80823300  0.38870500  1
  H  1938  1  0.99938100  0.75430300  0.32993800  1
  H  1940  1  0.04609290  0.72491900  0.32642800  1
  H  1942  1  0.97281400  0.79725500  0.38042300  1
  H  1944  1  0.08992290  0.75258000  0.33653700  1
  C  1  1  0.00268600  0.55690000  0.44163700  1
  C  2  1  0.00312400  0.57609500  0.46035000  1
  C  3  1  0.00297300  0.56428900  0.48478200  1
  C  5  1  0.00263300  0.53278100  0.45406700  1
  C  6  1  0.00247200  0.50829600  0.44111400  1
  C  7  1  0.00239600  0.48387500  0.45406200  1
  C  9  1  0.00251900  0.45337600  0.48533500  1
  C  10  1  0.00241400  0.44081700  0.46129700  1
  C  11  1  0.00253600  0.45953400  0.44210800  1
  C  12  1  0.00257500  0.44103500  0.51006800  1
  C  13  1  0.00251100  0.45460500  0.53421900  1
  C  15  1  0.00292600  0.48612300  0.56494100  1
  C  16  1  0.00277500  0.46199400  0.57736000  1
  C  17  1  0.00273800  0.44279400  0.55864600  1
  C  18  1  0.00332800  0.51060800  0.57791000  1
  C  19  1  0.00322500  0.53503100  0.56497100  1
  C  21  1  0.00331900  0.56552200  0.53367600  1
  C  22  1  0.00358100  0.57808500  0.55770800  1
  C  23  1  0.00375900  0.55937400  0.57690800  1
  C  24  1  0.00336300  0.57785200  0.50893100  1
  C  25  1  0.00429500  0.60569700  0.50835400  1
  C  26  1  0.02765500  0.61906300  0.51379800  1
  C  27  1  0.02853000  0.64641900  0.51365000  1
  C  28  1  0.00629300  0.66127900  0.50760700  1
  C  29  1  0.98290300  0.64787900  0.50216700  1
  C  30  1  0.98190700  0.62051500  0.50260000  1
  C  31  1  0.00455100  0.51071700  0.60575500  1
  C  32  1  0.02798400  0.50470400  0.61874500  1
  C  33  1  0.02917800  0.50431200  0.64608300  1
  C  34  1  0.00719900  0.51035400  0.66132300  1
  C  35  1  0.98374600  0.51641300  0.64831000  1
  C  36  1  0.98243300  0.51654700  0.62094800  1
  C  37  1  0.00299800  0.41317400  0.51057100  1
  C  38  1  0.98035000  0.39877900  0.51637000  1
  C  39  1  0.98081400  0.37140300  0.51664400  1
  C  40  1  0.00371700  0.35754200  0.51068200  1
  C  41  1  0.02643500  0.37198600  0.50509100  1
  C  42  1  0.02608700  0.39936100  0.50506700  1
  C  43  1  0.00249300  0.50816000  0.41325200  1
  C  44  1  0.97965700  0.50230100  0.39918300  1
  C  45  1  0.02541300  0.51356900  0.39912600  1
  C  46  1  0.02543500  0.51330100  0.37174500  1
  C  47  1  0.00256100  0.50748400  0.35763900  1
  C  48  1  0.97979700  0.50176700  0.37181700  1
  C  79  1  0.44158600  0.00228000  0.55688500  1
  C  80  1  0.46030300  0.00246000  0.57607900  1
  C  81  1  0.48473500  0.00236100  0.56427000  1
  C  83  1  0.45401300  0.00241400  0.53276500  1
  C  84  1  0.44105800  0.00243300  0.50828200  1
  C  85  1  0.45400700  0.00256900  0.48386400  1
  C  87  1  0.48528900  0.00313000  0.45337200  1
  C  88  1  0.46125200  0.00305800  0.44081200  1
  C  89  1  0.44205600  0.00289700  0.45952300  1
  C  90  1  0.51002600  0.00347600  0.44103500  1
  C  91  1  0.53417400  0.00320400  0.45459700  1
  C  93  1  0.56489300  0.00321600  0.48611800  1
  C  94  1  0.57731400  0.00339400  0.46199000  1
  C  95  1  0.55859900  0.00362100  0.44279000  1
  C  96  1  0.57786100  0.00334400  0.51060600  1
  C  97  1  0.56492000  0.00298300  0.53502700  1
  C  99  1  0.53362900  0.00265500  0.56551400  1
  C  100  1  0.55766100  0.00277900  0.57808300  1
  C  101  1  0.57686000  0.00322000  0.55937600  1
  C  102  1  0.50888800  0.00247400  0.57783800  1
  C  103  1  0.50832900  0.00255800  0.60569500  1
  C  104  1  0.51356700  0.02550300  0.61984400  1
  C  105  1  0.51309300  0.02554800  0.64721900  1
  C  106  1  0.50727300  0.00266200  0.66130600  1
  C  107  1  0.50168000  0.97988200  0.64710500  1
  C  108  1  0.50240400  0.97972300  0.61973900  1
  C  109  1  0.60570500  0.00458200  0.51073000  1
  C  110  1  0.61868700  0.02805300  0.50485600  1
  C  111  1  0.64602300  0.02925700  0.50446700  1
  C  112  1  0.66126900  0.00725800  0.51041600  1
  C  113  1  0.64826500  0.98376100  0.51632700  1
  C  114  1  0.62090800  0.98243500  0.51643800  1
  C  115  1  0.51054200  0.00477100  0.41319900  1
  C  116  1  0.51630400  0.98262000  0.39802700  1
  C  117  1  0.51628300  0.98393800  0.37066800  1
  C  118  1  0.51038900  0.00742300  0.35763300  1
  C  119  1  0.50442100  0.02943500  0.37285200  1
  C  120  1  0.50471000  0.02823800  0.40019000  1
  C  121  1  0.41319400  0.00245500  0.50814800  1
  C  122  1  0.39912600  0.97962400  0.50227000  1
  C  123  1  0.39906800  0.02536600  0.51358800  1
  C  124  1  0.37168500  0.02538600  0.51333200  1
  C  125  1  0.35757700  0.00251100  0.50751700  1
  C  126  1  0.37175900  0.97976000  0.50175900  1
  C  157  1  0.55688500  0.44158600  0.00227000  1
  C  158  1  0.57607900  0.46030300  0.00245700  1
  C  159  1  0.56426800  0.48473500  0.00235000  1
  C  161  1  0.53276500  0.45401100  0.00239800  1
  C  162  1  0.50828200  0.44105400  0.00241200  1
  C  163  1  0.48386400  0.45400100  0.00254800  1
  C  165  1  0.45337000  0.48527900  0.00312400  1
  C  166  1  0.44081200  0.46124100  0.00305500  1
  C  167  1  0.45952300  0.44204800  0.00288400  1
  C  168  1  0.44102900  0.51001400  0.00346400  1
  C  169  1  0.45459200  0.53416500  0.00320600  1
  C  171  1  0.48611000  0.56488500  0.00323300  1
  C  172  1  0.46197800  0.57730400  0.00339600  1
  C  173  1  0.44278000  0.55858900  0.00361400  1
  C  174  1  0.51059400  0.57785600  0.00337500  1
  C  175  1  0.53501700  0.56491800  0.00302200  1
  C  177  1  0.56550800  0.53362900  0.00267200  1
  C  178  1  0.57807300  0.55766100  0.00280400  1
  C  179  1  0.55936400  0.57685800  0.00325100  1
  C  180  1  0.57783400  0.50888800  0.00248000  1
  C  181  1  0.60569300  0.50833100  0.00255900  1
  C  182  1  0.61984200  0.51356900  0.02550400  1
  C  183  1  0.64721700  0.51309900  0.02554700  1
  C  184  1  0.66130400  0.50726500  0.00266400  1
  C  185  1  0.64709900  0.50167800  0.97988200  1
  C  186  1  0.61973500  0.50240600  0.97972500  1
  C  187  1  0.51071700  0.60569900  0.00459600  1
  C  188  1  0.50482700  0.61869600  0.02805600  1
  C  189  1  0.50443300  0.64603500  0.02924100  1
  C  190  1  0.51037100  0.66126500  0.00723000  1
  C  191  1  0.51630400  0.64824600  0.98374600  1
  C  192  1  0.51642400  0.62088600  0.98244100  1
  C  193  1  0.41319500  0.51053000  0.00475900  1
  C  194  1  0.39802600  0.51628500  0.98260600  1
  C  195  1  0.37066400  0.51627100  0.98392400  1
  C  196  1  0.35762900  0.51038100  0.00741100  1
  C  197  1  0.37284600  0.50441300  0.02942400  1
  C  198  1  0.40018400  0.50469700  0.02822600  1
  C  199  1  0.50814800  0.41319200  0.00243900  1
  C  200  1  0.50226400  0.39911700  0.97961400  1
  C  201  1  0.51358400  0.39907200  0.02535600  1
  C  202  1  0.51330700  0.37169100  0.02538800  1
  C  203  1  0.50750400  0.35757500  0.00251700  1
  C  204  1  0.50175000  0.37174900  0.97975800  1
  C  235  1  0.50322100  0.05733800  0.94189900  1
  C  236  1  0.50342100  0.07641200  0.96073800  1
  C  237  1  0.50316700  0.06444500  0.98509300  1
  C  239  1  0.50321700  0.03313800  0.95417100  1
  C  240  1  0.50340600  0.00874100  0.94105300  1
  C  241  1  0.50327200  0.98423700  0.95383700  1
  C  243  1  0.50344400  0.95353800  0.98491800  1
  C  244  1  0.50357600  0.94113600  0.96080000  1
  C  245  1  0.50368500  0.95997300  0.94173000  1
  C  246  1  0.50361500  0.94103300  0.00957400  1
  C  247  1  0.50325800  0.95444000  0.03381200  1
  C  249  1  0.50324200  0.98575700  0.06473700  1
  C  250  1  0.50334900  0.96155000  0.07700200  1
  C  251  1  0.50358400  0.94247400  0.05816200  1
  C  252  1  0.50345000  0.01015800  0.07786500  1
  C  253  1  0.50328100  0.03466600  0.06508500  1
  C  255  1  0.50336900  0.06535900  0.03399300  1
  C  256  1  0.50355100  0.07777000  0.05810500  1
  C  257  1  0.50371200  0.05893400  0.07718200  1
  C  258  1  0.50346400  0.07784900  0.00933300  1
  C  259  1  0.50440500  0.10569400  0.00893500  1
  C  260  1  0.52777200  0.11903300  0.01442000  1
  C  261  1  0.52868800  0.14639100  0.01425500  1
  C  262  1  0.50648800  0.16127600  0.00814300  1
  C  263  1  0.48306600  0.14789500  0.00277900  1
  C  264  1  0.48203100  0.12053700  0.00320400  1
  C  265  1  0.50465800  0.01010800  0.10570900  1
  C  266  1  0.52810800  0.00416900  0.11870300  1
  C  267  1  0.52930500  0.00380000  0.14604500  1
  C  268  1  0.50731400  0.00979500  0.16128100  1
  C  269  1  0.48383100  0.01572900  0.14825300  1
  C  270  1  0.48251000  0.01583200  0.12089800  1
  C  271  1  0.50488700  0.91319400  0.00992200  1
  C  272  1  0.48272600  0.89802800  0.01565400  1
  C  273  1  0.48403800  0.87067200  0.01562300  1
  C  274  1  0.50752900  0.85761600  0.00976800  1
  C  275  1  0.52953800  0.87283100  0.00378300  1
  C  276  1  0.52834600  0.90017300  0.00407400  1
  C  277  1  0.50429700  0.00877000  0.91320200  1
  C  278  1  0.48195300  0.00300000  0.89832500  1
  C  279  1  0.52761100  0.01454700  0.89989700  1
  C  280  1  0.52851500  0.01460000  0.87253800  1
  C  281  1  0.50635600  0.00841900  0.85761800  1
  C  282  1  0.48297800  0.00279200  0.87096500  1
  C  313  1  0.94188900  0.50330300  0.05739600  1
  C  314  1  0.96072700  0.50348500  0.07647300  1
  C  315  1  0.98508100  0.50320600  0.06451100  1
  C  317  1  0.95416700  0.50326800  0.03319700  1
  C  318  1  0.94105100  0.50343700  0.00879700  1
  C  319  1  0.95384100  0.50331000  0.98429500  1
  C  321  1  0.98493000  0.50346200  0.95360400  1
  C  322  1  0.96081400  0.50360400  0.94119600  1
  C  323  1  0.94174000  0.50371400  0.96003000  1
  C  324  1  0.00958700  0.50361300  0.94110300  1
  C  325  1  0.03382300  0.50325000  0.95451400  1
  C  327  1  0.06474000  0.50325000  0.98583600  1
  C  328  1  0.07701000  0.50331000  0.96163300  1
  C  329  1  0.05817400  0.50355500  0.94255300  1
  C  330  1  0.07786400  0.50348700  0.01024000  1
  C  331  1  0.06508000  0.50329300  0.03474500  1
  C  333  1  0.03398300  0.50336900  0.06543400  1
  C  334  1  0.05809400  0.50354300  0.07784800  1
  C  335  1  0.07717400  0.50373000  0.05901500  1
  C  336  1  0.00931900  0.50347000  0.07791900  1
  C  337  1  0.00891700  0.50440500  0.10576400  1
  C  338  1  0.01440700  0.52776800  0.11910900  1
  C  339  1  0.01424300  0.52867800  0.14646700  1
  C  340  1  0.00813700  0.50647100  0.16134600  1
  C  341  1  0.00274600  0.48305800  0.14796000  1
  C  342  1  0.00317900  0.48202900  0.12060100  1
  C  343  1  0.10570800  0.50468700  0.01018900  1
  C  344  1  0.11870300  0.52813300  0.00424100  1
  C  345  1  0.14604500  0.52932500  0.00385600  1
  C  346  1  0.16128000  0.50733100  0.00984500  1
  C  347  1  0.14824900  0.48384800  0.01578000  1
  C  348  1  0.12089400  0.48253800  0.01591000  1
  C  349  1  0.00994300  0.50488500  0.91326400  1
  C  350  1  0.01563800  0.48271400  0.89810000  1
  C  351  1  0.01562000  0.48402700  0.87074400  1
  C  352  1  0.00980200  0.50752500  0.85768600  1
  C  353  1  0.00386800  0.52955000  0.87290100  1
  C  354  1  0.00414000  0.52835400  0.90024300  1
  C  355  1  0.91320200  0.50432200  0.00881800  1
  C  356  1  0.89833100  0.48197700  0.00304500  1
  C  357  1  0.89988800  0.52763600  0.01458300  1
  C  358  1  0.87252800  0.52853500  0.01462200  1
  C  359  1  0.85761600  0.50637800  0.00841700  1
  C  360  1  0.87097100  0.48299800  0.00281400  1
  C  391  1  0.05695600  0.94163300  0.50300600  1
  C  392  1  0.07612400  0.96037100  0.50358000  1
  C  393  1  0.06429400  0.98479000  0.50312800  1
  C  395  1  0.03282600  0.95403700  0.50261500  1
  C  396  1  0.00835600  0.94105900  0.50228000  1
  C  397  1  0.98392200  0.95397600  0.50232600  1
  C  399  1  0.95339600  0.98521700  0.50303900  1
  C  400  1  0.94086200  0.96116700  0.50276700  1
  C  401  1  0.95959700  0.94199400  0.50246800  1
  C  402  1  0.94102900  0.00993600  0.50353400  1
  C  403  1  0.95456100  0.03410300  0.50314500  1
  C  405  1  0.98603600  0.06485600  0.50254600  1
  C  406  1  0.96190300  0.07725400  0.50306800  1
  C  407  1  0.94273600  0.05851700  0.50370600  1
  C  408  1  0.01050900  0.07784000  0.50222700  1
  C  409  1  0.03494600  0.06493000  0.50221000  1
  C  411  1  0.06547100  0.03368500  0.50290900  1
  C  412  1  0.07800900  0.05773200  0.50262500  1
  C  413  1  0.05927400  0.07691000  0.50233400  1
  C  414  1  0.07782500  0.00896000  0.50338600  1
  C  415  1  0.10566400  0.00843600  0.50442500  1
  C  416  1  0.11897500  0.01412600  0.52775800  1
  C  417  1  0.14633400  0.01395700  0.52870900  1
  C  418  1  0.16124900  0.00768500  0.50657200  1
  C  419  1  0.14789000  0.00209500  0.48319000  1
  C  420  1  0.12053400  0.00250100  0.48212200  1
  C  421  1  0.01059700  0.10569700  0.50269500  1
  C  422  1  0.00567700  0.11933300  0.52600500  1
  C  423  1  0.00553200  0.14670000  0.52651000  1
  C  424  1  0.01040200  0.16134900  0.50373900  1
  C  425  1  0.01570200  0.14763200  0.48058100  1
  C  426  1  0.01566400  0.12025200  0.47997500  1
  C  427  1  0.91319800  0.01041500  0.50491000  1
  C  428  1  0.89800100  0.01632300  0.48282100  1
  C  429  1  0.87064900  0.01630300  0.48417600  1
  C  430  1  0.85762200  0.01028200  0.50764200  1
  C  431  1  0.87286900  0.00414000  0.52958500  1
  C  432  1  0.90021400  0.00440600  0.52834800  1
  C  433  1  0.00824200  0.91320200  0.50236700  1
  C  434  1  0.00286600  0.89902800  0.47948000  1
  C  435  1  0.01318600  0.89918700  0.52545000  1
  C  436  1  0.01295500  0.87181100  0.52558600  1
  C  437  1  0.00766700  0.85756200  0.50266000  1
  C  438  1  0.00242900  0.87165200  0.47971900  1
  C  469  1  0.01041400  0.51052800  0.28686000  1
  C  470  1  0.02503400  0.52357300  0.26756500  1
  C  471  1  0.02094000  0.51891100  0.24091200  1
  C  472  1  0.00207000  0.50087000  0.23221800  1
  C  473  1  0.98734700  0.48771900  0.25153900  1
  C  476  1  0.99135600  0.49270300  0.27822500  1
  C  480  1  0.01553600  0.51495700  0.31321100  1
  C  482  1  0.99854100  0.49537200  0.20576500  1
  C  484  1  0.00278700  0.51321900  0.73243000  1
  C  485  1  0.98870000  0.52571000  0.75247500  1
  C  486  1  0.99380600  0.52063500  0.77887800  1
  C  487  1  0.01322300  0.50272200  0.78656700  1
  C  488  1  0.02747700  0.49018300  0.76650700  1
  C  491  1  0.02245000  0.49558800  0.74007100  1
  C  495  1  0.99656300  0.51796200  0.70636300  1
  C  497  1  0.01759700  0.49667100  0.81277200  1
  C  499  1  0.28678600  0.01032800  0.51052500  1
  C  500  1  0.26746800  0.02488300  0.52360600  1
  C  501  1  0.24081600  0.02071100  0.51898500  1
  C  502  1  0.23215200  0.00182400  0.50095000  1
  C  503  1  0.25149800  0.98717200  0.48775200  1
  C  506  1  0.27817800  0.99125300  0.49270300  1
  C  510  1  0.31313100  0.01550100  0.51493000  1
  C  512  1  0.20570100  0.99822000  0.49547700  1
  C  514  1  0.73237200  0.00288000  0.51322100  1
  C  515  1  0.75244000  0.98886300  0.52575300  1
  C  516  1  0.77883300  0.99404300  0.52070700  1
  C  517  1  0.78648800  0.01347800  0.50279800  1
  C  518  1  0.76640000  0.02765400  0.49021200  1
  C  521  1  0.73997400  0.02254900  0.49558200  1
  C  525  1  0.70631500  0.99659900  0.51794100  1
  C  527  1  0.81268700  0.01795400  0.49679500  1
  C  529  1  0.51052500  0.28679600  0.01040400  1
  C  530  1  0.52358200  0.26750500  0.02501700  1
  C  531  1  0.51893100  0.24084800  0.02092600  1
  C  532  1  0.50088800  0.23214600  0.00206100  1
  C  533  1  0.48772500  0.25146300  0.98733900  1
  C  536  1  0.49269700  0.27815100  0.99135000  1
  C  540  1  0.51495700  0.31314800  0.01551000  1
  C  542  1  0.49541100  0.20568900  0.99852100  1
  C  544  1  0.51320200  0.73236200  0.00276900  1
  C  545  1  0.52572400  0.75240100  0.98870400  1
  C  546  1  0.52066100  0.77880400  0.99381200  1
  C  547  1  0.50272800  0.78649900  0.01321200  1
  C  548  1  0.49015200  0.76644100  0.02743800  1
  C  551  1  0.49554700  0.74000500  0.02241000  1
  C  555  1  0.51793700  0.70629300  0.99654900  1
  C  557  1  0.49671000  0.81270800  0.01761300  1
  C  559  1  0.51031700  0.01055300  0.73208500  1
  C  560  1  0.52341300  0.02516900  0.75134700  1
  C  561  1  0.51883400  0.02106800  0.77801400  1
  C  562  1  0.50082400  0.00219100  0.78675600  1
  C  563  1  0.48761000  0.98747900  0.76746400  1
  C  566  1  0.49251800  0.99149200  0.74076600  1
  C  570  1  0.51472200  0.01563900  0.70572400  1
  C  572  1  0.49547100  0.99857800  0.81323200  1
  C  574  1  0.51309300  0.00291500  0.28653200  1
  C  575  1  0.52558600  0.98883200  0.26648700  1
  C  576  1  0.52052500  0.99395500  0.24008700  1
  C  577  1  0.50261500  0.01337800  0.23239700  1
  C  578  1  0.49006400  0.02761900  0.25246100  1
  C  581  1  0.49545800  0.02257700  0.27889700  1
  C  585  1  0.51782000  0.99666900  0.31259500  1
  C  587  1  0.49661100  0.01779600  0.20618600  1
  C  589  1  0.01248900  0.28699800  0.50528100  1
  C  590  1  0.02679400  0.26844400  0.49086600  1
  C  591  1  0.02347400  0.24156600  0.49482700  1
  C  592  1  0.00563500  0.23193100  0.51340900  1
  C  593  1  0.99091900  0.25047500  0.52764000  1
  C  596  1  0.99448900  0.27739000  0.52370100  1
  C  600  1  0.01697500  0.31357600  0.50157500  1
  C  602  1  0.00313000  0.20529300  0.51841400  1
  C  604  1  0.00090900  0.73216200  0.50255900  1
  C  605  1  0.98744400  0.75149800  0.48837700  1
  C  606  1  0.99199600  0.77814600  0.49262700  1
  C  607  1  0.01028800  0.78676300  0.51127600  1
  C  608  1  0.02421100  0.76741600  0.52523100  1
  C  611  1  0.01941300  0.74073500  0.52099600  1
  C  615  1  0.99509100  0.70587200  0.49867800  1
  C  617  1  0.01391100  0.81320900  0.51662100  1
  C  619  1  0.28652800  0.51309300  0.00290500  1
  C  620  1  0.26648200  0.52557400  0.98881500  1
  C  621  1  0.24008300  0.52051100  0.99394200  1
  C  622  1  0.23239700  0.50262100  0.01338300  1
  C  623  1  0.25246300  0.49008600  0.02763300  1
  C  626  1  0.27889700  0.49548300  0.02259000  1
  C  630  1  0.31259100  0.51782000  0.99665600  1
  C  632  1  0.20619000  0.49659500  0.01778700  1
  C  634  1  0.73208300  0.51031700  0.01055500  1
  C  635  1  0.75134300  0.52341000  0.02517600  1
  C  636  1  0.77801000  0.51882800  0.02107900  1
  C  637  1  0.78675600  0.50082500  0.00219600  1
  C  638  1  0.76746600  0.48762000  0.98747500  1
  C  641  1  0.74076600  0.49252000  0.99149200  1
  C  645  1  0.70572100  0.51472000  0.01563900  1
  C  647  1  0.81323200  0.49547700  0.99858400  1
  C  649  1  0.13858200  0.69279600  0.61636100  1
  C  650  1  0.13902000  0.71199100  0.63507400  1
  C  651  1  0.13886900  0.70018500  0.65950600  1
  C  653  1  0.13852900  0.66867700  0.62879100  1
  C  654  1  0.13836800  0.64419200  0.61583800  1
  C  655  1  0.13829200  0.61977100  0.62878600  1
  C  657  1  0.13841500  0.58927200  0.66005900  1
  C  658  1  0.13831000  0.57671300  0.63602100  1
  C  659  1  0.13843200  0.59543000  0.61683200  1
  C  660  1  0.13847100  0.57693100  0.68479200  1
  C  661  1  0.13840700  0.59050100  0.70894300  1
  C  663  1  0.13882200  0.62201900  0.73966500  1
  C  664  1  0.13867100  0.59789000  0.75208400  1
  C  665  1  0.13863400  0.57869000  0.73337000  1
  C  666  1  0.13922400  0.64650400  0.75263400  1
  C  667  1  0.13912100  0.67092700  0.73969500  1
  C  669  1  0.13921500  0.70141800  0.70840000  1
  C  670  1  0.13947700  0.71398100  0.73243200  1
  C  671  1  0.13965500  0.69527000  0.75163200  1
  C  672  1  0.13925900  0.71374800  0.68365500  1
  C  673  1  0.14019100  0.74159300  0.68307800  1
  C  674  1  0.16355100  0.75495900  0.68852200  1
  C  675  1  0.16442600  0.78231500  0.68837400  1
  C  676  1  0.14218900  0.79717500  0.68233100  1
  C  677  1  0.11879900  0.78377500  0.67689100  1
  C  678  1  0.11780300  0.75641100  0.67732400  1
  C  679  1  0.14044700  0.64661300  0.78047900  1
  C  680  1  0.16388000  0.64060000  0.79346900  1
  C  681  1  0.16507400  0.64020800  0.82080700  1
  C  682  1  0.14309500  0.64625000  0.83604700  1
  C  683  1  0.11964200  0.65230900  0.82303400  1
  C  684  1  0.11832900  0.65244300  0.79567200  1
  C  685  1  0.13889400  0.54907000  0.68529500  1
  C  686  1  0.11624600  0.53467500  0.69109400  1
  C  687  1  0.11671000  0.50729900  0.69136800  1
  C  688  1  0.13961300  0.49343800  0.68540600  1
  C  689  1  0.16233100  0.50788200  0.67981500  1
  C  690  1  0.16198300  0.53525700  0.67979100  1
  C  691  1  0.13838900  0.64405600  0.58797600  1
  C  692  1  0.11555300  0.63819700  0.57390700  1
  C  693  1  0.16130900  0.64946500  0.57385000  1
  C  694  1  0.16133100  0.64919700  0.54646900  1
  C  695  1  0.13845700  0.64338000  0.53236300  1
  C  696  1  0.11569300  0.63766300  0.54654100  1
  C  727  1  0.57748200  0.13817600  0.73160900  1
  C  728  1  0.59619900  0.13835600  0.75080300  1
  C  729  1  0.62063100  0.13825700  0.73899400  1
  C  731  1  0.58990900  0.13831000  0.70748900  1
  C  732  1  0.57695400  0.13832900  0.68300600  1
  C  733  1  0.58990300  0.13846500  0.65858800  1
  C  735  1  0.62118500  0.13902600  0.62809600  1
  C  736  1  0.59714800  0.13895400  0.61553600  1
  C  737  1  0.57795200  0.13879300  0.63424700  1
  C  738  1  0.64592200  0.13937200  0.61575900  1
  C  739  1  0.67007000  0.13910000  0.62932100  1
  C  741  1  0.70078900  0.13911200  0.66084200  1
  C  742  1  0.71321000  0.13929000  0.63671400  1
  C  743  1  0.69449500  0.13951700  0.61751400  1
  C  744  1  0.71375700  0.13924000  0.68533000  1
  C  745  1  0.70081600  0.13887900  0.70975100  1
  C  747  1  0.66952500  0.13855100  0.74023800  1
  C  748  1  0.69355700  0.13867500  0.75280700  1
  C  749  1  0.71275600  0.13911600  0.73410000  1
  C  750  1  0.64478400  0.13837000  0.75256200  1
  C  751  1  0.64422500  0.13845400  0.78041900  1
  C  752  1  0.64946300  0.16139900  0.79456800  1
  C  753  1  0.64898900  0.16144400  0.82194300  1
  C  754  1  0.64316900  0.13855800  0.83603000  1
  C  755  1  0.63757600  0.11577800  0.82182900  1
  C  756  1  0.63830000  0.11561900  0.79446300  1
  C  757  1  0.74160100  0.14047800  0.68545400  1
  C  758  1  0.75458300  0.16394900  0.67958000  1
  C  759  1  0.78191900  0.16515300  0.67919100  1
  C  760  1  0.79716500  0.14315400  0.68514000  1
  C  761  1  0.78416100  0.11965700  0.69105100  1
  C  762  1  0.75680400  0.11833100  0.69116200  1
  C  763  1  0.64643800  0.14066700  0.58792300  1
  C  764  1  0.65220000  0.11851600  0.57275100  1
  C  765  1  0.65217900  0.11983400  0.54539200  1
  C  766  1  0.64628500  0.14331900  0.53235700  1
  C  767  1  0.64031700  0.16533100  0.54757600  1
  C  768  1  0.64060600  0.16413400  0.57491400  1
  C  769  1  0.54909000  0.13835100  0.68287200  1
  C  770  1  0.53502200  0.11552000  0.67699400  1
  C  771  1  0.53496400  0.16126200  0.68831200  1
  C  772  1  0.50758100  0.16128200  0.68805600  1
  C  773  1  0.49347300  0.13840700  0.68224100  1
  C  774  1  0.50765500  0.11565600  0.67648300  1
  C  805  1  0.69278100  0.57748200  0.17699400  1
  C  806  1  0.71197500  0.59619900  0.17718100  1
  C  807  1  0.70016400  0.62063100  0.17707400  1
  C  809  1  0.66866100  0.58990700  0.17712200  1
  C  810  1  0.64417800  0.57695000  0.17713600  1
  C  811  1  0.61976000  0.58989700  0.17727200  1
  C  813  1  0.58926600  0.62117500  0.17784800  1
  C  814  1  0.57670800  0.59713700  0.17777900  1
  C  815  1  0.59541900  0.57794400  0.17760800  1
  C  816  1  0.57692500  0.64591000  0.17818800  1
  C  817  1  0.59048800  0.67006100  0.17793000  1
  C  819  1  0.62200600  0.70078100  0.17795700  1
  C  820  1  0.59787400  0.71320000  0.17812000  1
  C  821  1  0.57867600  0.69448500  0.17833800  1
  C  822  1  0.64649000  0.71375200  0.17809900  1
  C  823  1  0.67091300  0.70081400  0.17774600  1
  C  825  1  0.70140400  0.66952500  0.17739600  1
  C  826  1  0.71396900  0.69355700  0.17752800  1
  C  827  1  0.69526000  0.71275400  0.17797500  1
  C  828  1  0.71373000  0.64478400  0.17720400  1
  C  829  1  0.74158900  0.64422700  0.17728300  1
  C  830  1  0.75573800  0.64946500  0.20022800  1
  C  831  1  0.78311300  0.64899500  0.20027100  1
  C  832  1  0.79720000  0.64316100  0.17738800  1
  C  833  1  0.78299500  0.63757400  0.15460600  1
  C  834  1  0.75563100  0.63830200  0.15444900  1
  C  835  1  0.64661300  0.74159500  0.17932000  1
  C  836  1  0.64072300  0.75459200  0.20278000  1
  C  837  1  0.64032900  0.78193100  0.20396500  1
  C  838  1  0.64626700  0.79716100  0.18195400  1
  C  839  1  0.65220000  0.78414200  0.15847000  1
  C  840  1  0.65232000  0.75678200  0.15716500  1
  C  841  1  0.54909100  0.64642600  0.17948300  1
  C  842  1  0.53392200  0.65218100  0.15733000  1
  C  843  1  0.50656000  0.65216700  0.15864800  1
  C  844  1  0.49352500  0.64627700  0.18213500  1
  C  845  1  0.50874200  0.64030900  0.20414800  1
  C  846  1  0.53608000  0.64059300  0.20295000  1
  C  847  1  0.64404400  0.54908800  0.17716300  1
  C  848  1  0.63816000  0.53501300  0.15433800  1
  C  849  1  0.64948000  0.53496800  0.20008000  1
  C  850  1  0.64920300  0.50758700  0.20011200  1
  C  851  1  0.64340000  0.49347100  0.17724100  1
  C  852  1  0.63764600  0.50764500  0.15448200  1
  C  883  1  0.63911700  0.19323400  0.11662300  1
  C  884  1  0.63931700  0.21230800  0.13546200  1
  C  885  1  0.63906300  0.20034100  0.15981700  1
  C  887  1  0.63911300  0.16903400  0.12889500  1
  C  888  1  0.63930200  0.14463700  0.11577700  1
  C  889  1  0.63916800  0.12013300  0.12856100  1
  C  891  1  0.63934000  0.08943450  0.15964200  1
  C  892  1  0.63947200  0.07703250  0.13552400  1
  C  893  1  0.63958100  0.09586950  0.11645400  1
  C  894  1  0.63951100  0.07692950  0.18429800  1
  C  895  1  0.63915400  0.09033650  0.20853600  1
  C  897  1  0.63913800  0.12165300  0.23946100  1
  C  898  1  0.63924500  0.09744650  0.25172600  1
  C  899  1  0.63948000  0.07837050  0.23288600  1
  C  900  1  0.63934600  0.14605400  0.25258900  1
  C  901  1  0.63917700  0.17056200  0.23980900  1
  C  903  1  0.63926500  0.20125500  0.20871700  1
  C  904  1  0.63944700  0.21366600  0.23282900  1
  C  905  1  0.63960800  0.19483000  0.25190600  1
  C  906  1  0.63936000  0.21374500  0.18405700  1
  C  907  1  0.64030100  0.24159000  0.18365900  1
  C  908  1  0.66366800  0.25492900  0.18914400  1
  C  909  1  0.66458400  0.28228700  0.18897900  1
  C  910  1  0.64238400  0.29717200  0.18286700  1
  C  911  1  0.61896200  0.28379100  0.17750300  1
  C  912  1  0.61792700  0.25643300  0.17792800  1
  C  913  1  0.64055400  0.14600400  0.28043300  1
  C  914  1  0.66400400  0.14006500  0.29342700  1
  C  915  1  0.66520100  0.13969600  0.32076900  1
  C  916  1  0.64321000  0.14569100  0.33600500  1
  C  917  1  0.61972700  0.15162500  0.32297700  1
  C  918  1  0.61840600  0.15172800  0.29562200  1
  C  919  1  0.64078300  0.04909050  0.18464600  1
  C  920  1  0.61862200  0.03392450  0.19037800  1
  C  921  1  0.61993400  0.00656847  0.19034700  1
  C  922  1  0.64342500  0.99351200  0.18449200  1
  C  923  1  0.66543400  0.00872747  0.17850700  1
  C  924  1  0.66424200  0.03606950  0.17879800  1
  C  925  1  0.64019300  0.14466600  0.08792600  1
  C  926  1  0.61784900  0.13889600  0.07304900  1
  C  927  1  0.66350700  0.15044300  0.07462100  1
  C  928  1  0.66441100  0.15049600  0.04726200  1
  C  929  1  0.64225200  0.14431500  0.03234200  1
  C  930  1  0.61887400  0.13868800  0.04568900  1
  C  961  1  0.07778550  0.63919900  0.23212000  1
  C  962  1  0.09662350  0.63938100  0.25119700  1
  C  963  1  0.12097700  0.63910200  0.23923500  1
  C  965  1  0.09006350  0.63916400  0.20792100  1
  C  966  1  0.07694750  0.63933300  0.18352100  1
  C  967  1  0.08973750  0.63920600  0.15901900  1
  C  969  1  0.12082600  0.63935800  0.12832800  1
  C  970  1  0.09671050  0.63950000  0.11592000  1
  C  971  1  0.07763650  0.63961000  0.13475400  1
  C  972  1  0.14548300  0.63950900  0.11582700  1
  C  973  1  0.16971900  0.63914600  0.12923800  1
  C  975  1  0.20063600  0.63914600  0.16056000  1
  C  976  1  0.21290600  0.63920600  0.13635700  1
  C  977  1  0.19407000  0.63945100  0.11727700  1
  C  978  1  0.21376000  0.63938300  0.18496400  1
  C  979  1  0.20097600  0.63918900  0.20946900  1
  C  981  1  0.16987900  0.63926500  0.24015800  1
  C  982  1  0.19399000  0.63943900  0.25257200  1
  C  983  1  0.21307000  0.63962600  0.23373900  1
  C  984  1  0.14521500  0.63936600  0.25264300  1
  C  985  1  0.14481300  0.64030100  0.28048800  1
  C  986  1  0.15030300  0.66366400  0.29383300  1
  C  987  1  0.15013900  0.66457400  0.32119100  1
  C  988  1  0.14403300  0.64236700  0.33607000  1
  C  989  1  0.13864200  0.61895400  0.32268400  1
  C  990  1  0.13907500  0.61792500  0.29532500  1
  C  991  1  0.24160400  0.64058300  0.18491300  1
  C  992  1  0.25459900  0.66402900  0.17896500  1
  C  993  1  0.28194100  0.66522100  0.17858000  1
  C  994  1  0.29717600  0.64322700  0.18456900  1
  C  995  1  0.28414500  0.61974400  0.19050400  1
  C  996  1  0.25679000  0.61843400  0.19063400  1
  C  997  1  0.14583900  0.64078100  0.08798800  1
  C  998  1  0.15153400  0.61861000  0.07282400  1
  C  999  1  0.15151600  0.61992300  0.04546800  1
  C  1000  1  0.14569800  0.64342100  0.03241000  1
  C  1001  1  0.13976400  0.66544600  0.04762500  1
  C  1002  1  0.14003600  0.66425000  0.07496700  1
  C  1003  1  0.04909850  0.64021800  0.18354200  1
  C  1004  1  0.03422750  0.61787300  0.17776900  1
  C  1005  1  0.03578450  0.66353200  0.18930700  1
  C  1006  1  0.00842447  0.66443100  0.18934600  1
  C  1007  1  0.99351200  0.64227400  0.18314100  1
  C  1008  1  0.00686747  0.61889400  0.17753800  1
  C  1039  1  0.19285200  0.07752950  0.67773000  1
  C  1040  1  0.21202000  0.09626750  0.67830400  1
  C  1041  1  0.20019000  0.12068600  0.67785200  1
  C  1043  1  0.16872200  0.08993350  0.67733900  1
  C  1044  1  0.14425200  0.07695550  0.67700400  1
  C  1045  1  0.11981800  0.08987250  0.67705000  1
  C  1047  1  0.08929250  0.12111300  0.67776300  1
  C  1048  1  0.07675850  0.09706350  0.67749100  1
  C  1049  1  0.09549350  0.07789050  0.67719200  1
  C  1050  1  0.07692550  0.14583200  0.67825800  1
  C  1051  1  0.09045750  0.16999900  0.67786900  1
  C  1053  1  0.12193200  0.20075200  0.67727000  1
  C  1054  1  0.09779950  0.21315000  0.67779200  1
  C  1055  1  0.07863250  0.19441300  0.67843000  1
  C  1056  1  0.14640500  0.21373600  0.67695100  1
  C  1057  1  0.17084200  0.20082600  0.67693400  1
  C  1059  1  0.20136700  0.16958100  0.67763300  1
  C  1060  1  0.21390500  0.19362800  0.67734900  1
  C  1061  1  0.19517000  0.21280600  0.67705800  1
  C  1062  1  0.21372100  0.14485600  0.67811000  1
  C  1063  1  0.24156000  0.14433200  0.67914900  1
  C  1064  1  0.25487100  0.15002200  0.70248200  1
  C  1065  1  0.28223000  0.14985300  0.70343300  1
  C  1066  1  0.29714500  0.14358100  0.68129600  1
  C  1067  1  0.28378600  0.13799100  0.65791400  1
  C  1068  1  0.25643000  0.13839700  0.65684600  1
  C  1069  1  0.14649300  0.24159300  0.67741900  1
  C  1070  1  0.14157300  0.25522900  0.70072900  1
  C  1071  1  0.14142800  0.28259600  0.70123400  1
  C  1072  1  0.14629800  0.29724500  0.67846300  1
  C  1073  1  0.15159800  0.28352800  0.65530500  1
  C  1074  1  0.15156000  0.25614800  0.65469900  1
  C  1075  1  0.04909450  0.14631100  0.67963400  1
  C  1076  1  0.03389750  0.15221900  0.65754500  1
  C  1077  1  0.00654547  0.15219900  0.65890000  1
  C  1078  1  0.99351800  0.14617800  0.68236600  1
  C  1079  1  0.00876547  0.14003600  0.70430900  1
  C  1080  1  0.03611050  0.14030200  0.70307200  1
  C  1081  1  0.14413800  0.04909850  0.67709100  1
  C  1082  1  0.13876200  0.03492450  0.65420400  1
  C  1083  1  0.14908200  0.03508350  0.70017400  1
  C  1084  1  0.14885100  0.00770747  0.70031000  1
  C  1085  1  0.14356300  0.99345800  0.67738400  1
  C  1086  1  0.13832500  0.00754847  0.65444300  1
  C  1117  1  0.14631000  0.64642400  0.46158400  1
  C  1118  1  0.16093000  0.65946900  0.44228900  1
  C  1119  1  0.15683600  0.65480700  0.41563600  1
  C  1120  1  0.13796600  0.63676600  0.40694200  1
  C  1121  1  0.12324300  0.62361500  0.42626300  1
  C  1124  1  0.12725200  0.62859900  0.45294900  1
  C  1128  1  0.15143200  0.65085300  0.48793500  1
  C  1130  1  0.13443700  0.63126800  0.38048900  1
  C  1132  1  0.13868300  0.64911500  0.90715400  1
  C  1133  1  0.12459600  0.66160600  0.92719900  1
  C  1134  1  0.12970200  0.65653100  0.95360200  1
  C  1135  1  0.14911900  0.63861800  0.96129100  1
  C  1136  1  0.16337300  0.62607900  0.94123100  1
  C  1139  1  0.15834600  0.63148400  0.91479500  1
  C  1143  1  0.13245900  0.65385800  0.88108700  1
  C  1145  1  0.15349300  0.63256700  0.98749600  1
  C  1147  1  0.42268200  0.14622400  0.68524900  1
  C  1148  1  0.40336400  0.16077900  0.69833000  1
  C  1149  1  0.37671200  0.15660700  0.69370900  1
  C  1150  1  0.36804800  0.13772000  0.67567400  1
  C  1151  1  0.38739400  0.12306800  0.66247600  1
  C  1154  1  0.41407400  0.12714900  0.66742700  1
  C  1158  1  0.44902700  0.15139700  0.68965400  1
  C  1160  1  0.34159700  0.13411600  0.67020100  1
  C  1162  1  0.86826800  0.13877600  0.68794500  1
  C  1163  1  0.88833600  0.12475900  0.70047700  1
  C  1164  1  0.91472900  0.12993900  0.69543100  1
  C  1165  1  0.92238400  0.14937400  0.67752200  1
  C  1166  1  0.90229600  0.16355000  0.66493600  1
  C  1169  1  0.87587000  0.15844500  0.67030600  1
  C  1173  1  0.84221100  0.13249500  0.69266500  1
  C  1175  1  0.94858300  0.15385000  0.67151900  1
  C  1177  1  0.64642100  0.42269200  0.18512800  1
  C  1178  1  0.65947800  0.40340100  0.19974100  1
  C  1179  1  0.65482700  0.37674400  0.19565000  1
  C  1180  1  0.63678400  0.36804200  0.17678500  1
  C  1181  1  0.62362100  0.38735900  0.16206300  1
  C  1184  1  0.62859300  0.41404700  0.16607400  1
  C  1188  1  0.65085300  0.44904400  0.19023400  1
  C  1190  1  0.63130700  0.34158500  0.17324500  1
  C  1192  1  0.64909800  0.86825800  0.17749300  1
  C  1193  1  0.66162000  0.88829700  0.16342800  1
  C  1194  1  0.65655700  0.91470000  0.16853600  1
  C  1195  1  0.63862400  0.92239500  0.18793600  1
  C  1196  1  0.62604800  0.90233700  0.20216200  1
  C  1199  1  0.63144300  0.87590100  0.19713400  1
  C  1203  1  0.65383300  0.84218900  0.17127300  1
  C  1205  1  0.63260600  0.94860400  0.19233700  1
  C  1207  1  0.64621300  0.14644900  0.90680900  1
  C  1208  1  0.65930900  0.16106500  0.92607100  1
  C  1209  1  0.65473000  0.15696400  0.95273800  1
  C  1210  1  0.63672000  0.13808700  0.96148000  1
  C  1211  1  0.62350600  0.12337500  0.94218800  1
  C  1214  1  0.62841400  0.12738800  0.91549000  1
  C  1218  1  0.65061800  0.15153500  0.88044800  1
  C  1220  1  0.63136700  0.13447400  0.98795600  1
  C  1222  1  0.64898900  0.13881100  0.46125600  1
  C  1223  1  0.66148200  0.12472800  0.44121100  1
  C  1224  1  0.65642100  0.12985100  0.41481100  1
  C  1225  1  0.63851100  0.14927400  0.40712100  1
  C  1226  1  0.62596000  0.16351500  0.42718500  1
  C  1229  1  0.63135400  0.15847300  0.45362100  1
  C  1233  1  0.65371600  0.13256500  0.48731900  1
  C  1235  1  0.63250700  0.15369200  0.38091000  1
  C  1237  1  0.14838500  0.42289400  0.68000500  1
  C  1238  1  0.16269000  0.40434000  0.66559000  1
  C  1239  1  0.15937000  0.37746200  0.66955100  1
  C  1240  1  0.14153100  0.36782700  0.68813300  1
  C  1241  1  0.12681500  0.38637100  0.70236400  1
  C  1244  1  0.13038500  0.41328600  0.69842500  1
  C  1248  1  0.15287100  0.44947200  0.67629900  1
  C  1250  1  0.13902600  0.34118900  0.69313800  1
  C  1252  1  0.13680500  0.86805800  0.67728300  1
  C  1253  1  0.12334000  0.88739400  0.66310100  1
  C  1254  1  0.12789200  0.91404200  0.66735100  1
  C  1255  1  0.14618400  0.92265900  0.68600000  1
  C  1256  1  0.16010700  0.90331200  0.69995500  1
  C  1259  1  0.15530900  0.87663100  0.69572000  1
  C  1263  1  0.13098700  0.84176800  0.67340200  1
  C  1265  1  0.14980700  0.94910500  0.69134500  1
  C  1267  1  0.42242400  0.64898900  0.17762900  1
  C  1268  1  0.40237800  0.66147000  0.16353900  1
  C  1269  1  0.37597900  0.65640700  0.16866600  1
  C  1270  1  0.36829300  0.63851700  0.18810700  1
  C  1271  1  0.38835900  0.62598200  0.20235700  1
  C  1274  1  0.41479300  0.63137900  0.19731400  1
  C  1278  1  0.44848700  0.65371600  0.17138000  1
  C  1280  1  0.34208600  0.63249100  0.19251100  1
  C  1282  1  0.86797900  0.64621300  0.18527900  1
  C  1283  1  0.88723900  0.65930600  0.19990000  1
  C  1284  1  0.91390600  0.65472400  0.19580300  1
  C  1285  1  0.92265200  0.63672100  0.17692000  1
  C  1286  1  0.90336200  0.62351600  0.16219900  1
  C  1289  1  0.87666200  0.62841600  0.16621600  1
  C  1293  1  0.84161700  0.65061600  0.19036300  1
  C  1295  1  0.94912800  0.63137300  0.17330800  1
  C  1297  1  0.27447900  0.82869300  0.79108500  1
  C  1298  1  0.27491700  0.84788800  0.80979800  1
  C  1299  1  0.27476600  0.83608200  0.83423000  1
  C  1301  1  0.27442600  0.80457400  0.80351500  1
  C  1302  1  0.27426500  0.78008900  0.79056200  1
  C  1303  1  0.27418900  0.75566800  0.80351000  1
  C  1305  1  0.27431200  0.72516900  0.83478300  1
  C  1306  1  0.27420700  0.71261000  0.81074500  1
  C  1307  1  0.27432900  0.73132700  0.79155600  1
  C  1308  1  0.27436800  0.71282800  0.85951600  1
  C  1309  1  0.27430400  0.72639800  0.88366700  1
  C  1311  1  0.27471900  0.75791600  0.91438900  1
  C  1312  1  0.27456800  0.73378700  0.92680800  1
  C  1313  1  0.27453100  0.71458700  0.90809400  1
  C  1314  1  0.27512100  0.78240100  0.92735800  1
  C  1315  1  0.27501800  0.80682400  0.91441900  1
  C  1317  1  0.27511200  0.83731500  0.88312400  1
  C  1318  1  0.27537400  0.84987800  0.90715600  1
  C  1319  1  0.27555200  0.83116700  0.92635600  1
  C  1320  1  0.27515600  0.84964500  0.85837900  1
  C  1321  1  0.27608800  0.87749000  0.85780200  1
  C  1322  1  0.29944800  0.89085600  0.86324600  1
  C  1323  1  0.30032300  0.91821200  0.86309800  1
  C  1324  1  0.27808600  0.93307200  0.85705500  1
  C  1325  1  0.25469600  0.91967200  0.85161500  1
  C  1326  1  0.25370000  0.89230800  0.85204800  1
  C  1327  1  0.27634400  0.78251000  0.95520300  1
  C  1328  1  0.29977700  0.77649700  0.96819300  1
  C  1329  1  0.30097100  0.77610500  0.99553100  1
  C  1330  1  0.27899200  0.78214700  0.01077110  1
  C  1331  1  0.25553900  0.78820600  0.99775800  1
  C  1332  1  0.25422600  0.78834000  0.97039600  1
  C  1333  1  0.27479100  0.68496700  0.86001900  1
  C  1334  1  0.25214300  0.67057200  0.86581800  1
  C  1335  1  0.25260700  0.64319600  0.86609200  1
  C  1336  1  0.27551000  0.62933500  0.86013000  1
  C  1337  1  0.29822800  0.64377900  0.85453900  1
  C  1338  1  0.29788000  0.67115400  0.85451500  1
  C  1339  1  0.27428600  0.77995300  0.76270000  1
  C  1340  1  0.25145000  0.77409400  0.74863100  1
  C  1341  1  0.29720600  0.78536200  0.74857400  1
  C  1342  1  0.29722800  0.78509400  0.72119300  1
  C  1343  1  0.27435400  0.77927700  0.70708700  1
  C  1344  1  0.25159000  0.77356000  0.72126500  1
  C  1375  1  0.71337900  0.27407300  0.90633300  1
  C  1376  1  0.73209600  0.27425300  0.92552700  1
  C  1377  1  0.75652800  0.27415400  0.91371800  1
  C  1379  1  0.72580600  0.27420700  0.88221300  1
  C  1380  1  0.71285100  0.27422600  0.85773000  1
  C  1381  1  0.72580000  0.27436200  0.83331200  1
  C  1383  1  0.75708200  0.27492300  0.80282000  1
  C  1384  1  0.73304500  0.27485100  0.79026000  1
  C  1385  1  0.71384900  0.27469000  0.80897100  1
  C  1386  1  0.78181900  0.27526900  0.79048300  1
  C  1387  1  0.80596700  0.27499700  0.80404500  1
  C  1389  1  0.83668600  0.27500900  0.83556600  1
  C  1390  1  0.84910700  0.27518700  0.81143800  1
  C  1391  1  0.83039200  0.27541400  0.79223800  1
  C  1392  1  0.84965400  0.27513700  0.86005400  1
  C  1393  1  0.83671300  0.27477600  0.88447500  1
  C  1395  1  0.80542200  0.27444800  0.91496200  1
  C  1396  1  0.82945400  0.27457200  0.92753100  1
  C  1397  1  0.84865300  0.27501300  0.90882400  1
  C  1398  1  0.78068100  0.27426700  0.92728600  1
  C  1399  1  0.78012200  0.27435100  0.95514300  1
  C  1400  1  0.78536000  0.29729600  0.96929200  1
  C  1401  1  0.78488600  0.29734100  0.99666700  1
  C  1402  1  0.77906600  0.27445500  0.01075410  1
  C  1403  1  0.77347300  0.25167500  0.99655300  1
  C  1404  1  0.77419700  0.25151600  0.96918700  1
  C  1405  1  0.87749800  0.27637500  0.86017800  1
  C  1406  1  0.89048000  0.29984600  0.85430400  1
  C  1407  1  0.91781600  0.30105000  0.85391500  1
  C  1408  1  0.93306200  0.27905100  0.85986400  1
  C  1409  1  0.92005800  0.25555400  0.86577500  1
  C  1410  1  0.89270100  0.25422800  0.86588600  1
  C  1411  1  0.78233500  0.27656400  0.76264700  1
  C  1412  1  0.78809700  0.25441300  0.74747500  1
  C  1413  1  0.78807600  0.25573100  0.72011600  1
  C  1414  1  0.78218200  0.27921600  0.70708100  1
  C  1415  1  0.77621400  0.30122800  0.72230000  1
  C  1416  1  0.77650300  0.30003100  0.74963800  1
  C  1417  1  0.68498700  0.27424800  0.85759600  1
  C  1418  1  0.67091900  0.25141700  0.85171800  1
  C  1419  1  0.67086100  0.29715900  0.86303600  1
  C  1420  1  0.64347800  0.29717900  0.86278000  1
  C  1421  1  0.62937000  0.27430400  0.85696500  1
  C  1422  1  0.64355200  0.25155300  0.85120700  1
  C  1453  1  0.82867800  0.71337900  0.35171800  1
  C  1454  1  0.84787200  0.73209600  0.35190500  1
  C  1455  1  0.83606100  0.75652800  0.35179800  1
  C  1457  1  0.80455800  0.72580400  0.35184600  1
  C  1458  1  0.78007500  0.71284700  0.35186000  1
  C  1459  1  0.75565700  0.72579400  0.35199600  1
  C  1461  1  0.72516300  0.75707200  0.35257200  1
  C  1462  1  0.71260500  0.73303400  0.35250300  1
  C  1463  1  0.73131600  0.71384100  0.35233200  1
  C  1464  1  0.71282200  0.78180700  0.35291200  1
  C  1465  1  0.72638500  0.80595800  0.35265400  1
  C  1467  1  0.75790300  0.83667800  0.35268100  1
  C  1468  1  0.73377100  0.84909700  0.35284400  1
  C  1469  1  0.71457300  0.83038200  0.35306200  1
  C  1470  1  0.78238700  0.84964900  0.35282300  1
  C  1471  1  0.80681000  0.83671100  0.35247000  1
  C  1473  1  0.83730100  0.80542200  0.35212000  1
  C  1474  1  0.84986600  0.82945400  0.35225200  1
  C  1475  1  0.83115700  0.84865100  0.35269900  1
  C  1476  1  0.84962700  0.78068100  0.35192800  1
  C  1477  1  0.87748600  0.78012400  0.35200700  1
  C  1478  1  0.89163500  0.78536200  0.37495200  1
  C  1479  1  0.91901000  0.78489200  0.37499500  1
  C  1480  1  0.93309700  0.77905800  0.35211200  1
  C  1481  1  0.91889200  0.77347100  0.32933000  1
  C  1482  1  0.89152800  0.77419900  0.32917300  1
  C  1483  1  0.78251000  0.87749200  0.35404400  1
  C  1484  1  0.77662000  0.89048900  0.37750400  1
  C  1485  1  0.77622600  0.91782800  0.37868900  1
  C  1486  1  0.78216400  0.93305800  0.35667800  1
  C  1487  1  0.78809700  0.92003900  0.33319400  1
  C  1488  1  0.78821700  0.89267900  0.33188900  1
  C  1489  1  0.68498800  0.78232300  0.35420700  1
  C  1490  1  0.66981900  0.78807800  0.33205400  1
  C  1491  1  0.64245700  0.78806400  0.33337200  1
  C  1492  1  0.62942200  0.78217400  0.35685900  1
  C  1493  1  0.64463900  0.77620600  0.37887200  1
  C  1494  1  0.67197700  0.77649000  0.37767400  1
  C  1495  1  0.77994100  0.68498500  0.35188700  1
  C  1496  1  0.77405700  0.67091000  0.32906200  1
  C  1497  1  0.78537700  0.67086500  0.37480400  1
  C  1498  1  0.78510000  0.64348400  0.37483600  1
  C  1499  1  0.77929700  0.62936800  0.35196500  1
  C  1500  1  0.77354300  0.64354200  0.32920600  1
  C  1531  1  0.77501400  0.32913100  0.29134700  1
  C  1532  1  0.77521400  0.34820500  0.31018600  1
  C  1533  1  0.77496000  0.33623800  0.33454100  1
  C  1535  1  0.77501000  0.30493100  0.30361900  1
  C  1536  1  0.77519900  0.28053400  0.29050100  1
  C  1537  1  0.77506500  0.25603000  0.30328500  1
  C  1539  1  0.77523700  0.22533100  0.33436600  1
  C  1540  1  0.77536900  0.21292900  0.31024800  1
  C  1541  1  0.77547800  0.23176600  0.29117800  1
  C  1542  1  0.77540800  0.21282600  0.35902200  1
  C  1543  1  0.77505100  0.22623300  0.38326000  1
  C  1545  1  0.77503500  0.25755000  0.41418500  1
  C  1546  1  0.77514200  0.23334300  0.42645000  1
  C  1547  1  0.77537700  0.21426700  0.40761000  1
  C  1548  1  0.77524300  0.28195100  0.42731300  1
  C  1549  1  0.77507400  0.30645900  0.41453300  1
  C  1551  1  0.77516200  0.33715200  0.38344100  1
  C  1552  1  0.77534400  0.34956300  0.40755300  1
  C  1553  1  0.77550500  0.33072700  0.42663000  1
  C  1554  1  0.77525700  0.34964200  0.35878100  1
  C  1555  1  0.77619800  0.37748700  0.35838300  1
  C  1556  1  0.79956500  0.39082600  0.36386800  1
  C  1557  1  0.80048100  0.41818400  0.36370300  1
  C  1558  1  0.77828100  0.43306900  0.35759100  1
  C  1559  1  0.75485900  0.41968800  0.35222700  1
  C  1560  1  0.75382400  0.39233000  0.35265200  1
  C  1561  1  0.77645100  0.28190100  0.45515700  1
  C  1562  1  0.79990100  0.27596200  0.46815100  1
  C  1563  1  0.80109800  0.27559300  0.49549300  1
  C  1564  1  0.77910700  0.28158800  0.51072900  1
  C  1565  1  0.75562400  0.28752200  0.49770100  1
  C  1566  1  0.75430300  0.28762500  0.47034600  1
  C  1567  1  0.77668000  0.18498700  0.35937000  1
  C  1568  1  0.75451900  0.16982100  0.36510200  1
  C  1569  1  0.75583100  0.14246500  0.36507100  1
  C  1570  1  0.77932200  0.12940900  0.35921600  1
  C  1571  1  0.80133100  0.14462400  0.35323100  1
  C  1572  1  0.80013900  0.17196600  0.35352200  1
  C  1573  1  0.77609000  0.28056300  0.26265000  1
  C  1574  1  0.75374600  0.27479300  0.24777300  1
  C  1575  1  0.79940400  0.28634000  0.24934500  1
  C  1576  1  0.80030800  0.28639300  0.22198600  1
  C  1577  1  0.77814900  0.28021200  0.20706600  1
  C  1578  1  0.75477100  0.27458500  0.22041300  1
  C  1609  1  0.21368200  0.77509600  0.40684400  1
  C  1610  1  0.23252000  0.77527800  0.42592100  1
  C  1611  1  0.25687400  0.77499900  0.41395900  1
  C  1613  1  0.22596000  0.77506100  0.38264500  1
  C  1614  1  0.21284400  0.77523000  0.35824500  1
  C  1615  1  0.22563400  0.77510300  0.33374300  1
  C  1617  1  0.25672300  0.77525500  0.30305200  1
  C  1618  1  0.23260700  0.77539700  0.29064400  1
  C  1619  1  0.21353300  0.77550700  0.30947800  1
  C  1620  1  0.28138000  0.77540600  0.29055100  1
  C  1621  1  0.30561600  0.77504300  0.30396200  1
  C  1623  1  0.33653300  0.77504300  0.33528400  1
  C  1624  1  0.34880300  0.77510300  0.31108100  1
  C  1625  1  0.32996700  0.77534800  0.29200100  1
  C  1626  1  0.34965700  0.77528000  0.35968800  1
  C  1627  1  0.33687300  0.77508600  0.38419300  1
  C  1629  1  0.30577600  0.77516200  0.41488200  1
  C  1630  1  0.32988700  0.77533600  0.42729600  1
  C  1631  1  0.34896700  0.77552300  0.40846300  1
  C  1632  1  0.28111200  0.77526300  0.42736700  1
  C  1633  1  0.28071000  0.77619800  0.45521200  1
  C  1634  1  0.28620000  0.79956100  0.46855700  1
  C  1635  1  0.28603600  0.80047100  0.49591500  1
  C  1636  1  0.27993000  0.77826400  0.51079400  1
  C  1637  1  0.27453900  0.75485100  0.49740800  1
  C  1638  1  0.27497200  0.75382200  0.47004900  1
  C  1639  1  0.37750100  0.77648000  0.35963700  1
  C  1640  1  0.39049600  0.79992600  0.35368900  1
  C  1641  1  0.41783800  0.80111800  0.35330400  1
  C  1642  1  0.43307300  0.77912400  0.35929300  1
  C  1643  1  0.42004200  0.75564100  0.36522800  1
  C  1644  1  0.39268700  0.75433100  0.36535800  1
  C  1645  1  0.28173600  0.77667800  0.26271200  1
  C  1646  1  0.28743100  0.75450700  0.24754800  1
  C  1647  1  0.28741300  0.75582000  0.22019200  1
  C  1648  1  0.28159500  0.77931800  0.20713400  1
  C  1649  1  0.27566100  0.80134300  0.22234900  1
  C  1650  1  0.27593300  0.80014700  0.24969100  1
  C  1651  1  0.18499500  0.77611500  0.35826600  1
  C  1652  1  0.17012400  0.75377000  0.35249300  1
  C  1653  1  0.17168100  0.79942900  0.36403100  1
  C  1654  1  0.14432100  0.80032800  0.36407000  1
  C  1655  1  0.12940900  0.77817100  0.35786500  1
  C  1656  1  0.14276400  0.75479100  0.35226200  1
  C  1687  1  0.32874900  0.21342600  0.85245400  1
  C  1688  1  0.34791700  0.23216400  0.85302800  1
  C  1689  1  0.33608700  0.25658300  0.85257600  1
  C  1691  1  0.30461900  0.22583000  0.85206300  1
  C  1692  1  0.28014900  0.21285200  0.85172800  1
  C  1693  1  0.25571500  0.22576900  0.85177400  1
  C  1695  1  0.22518900  0.25701000  0.85248700  1
  C  1696  1  0.21265500  0.23296000  0.85221500  1
  C  1697  1  0.23139000  0.21378700  0.85191600  1
  C  1698  1  0.21282200  0.28172900  0.85298200  1
  C  1699  1  0.22635400  0.30589600  0.85259300  1
  C  1701  1  0.25782900  0.33664900  0.85199400  1
  C  1702  1  0.23369600  0.34904700  0.85251600  1
  C  1703  1  0.21452900  0.33031000  0.85315400  1
  C  1704  1  0.28230200  0.34963300  0.85167500  1
  C  1705  1  0.30673900  0.33672300  0.85165800  1
  C  1707  1  0.33726400  0.30547800  0.85235700  1
  C  1708  1  0.34980200  0.32952500  0.85207300  1
  C  1709  1  0.33106700  0.34870300  0.85178200  1
  C  1710  1  0.34961800  0.28075300  0.85283400  1
  C  1711  1  0.37745700  0.28022900  0.85387300  1
  C  1712  1  0.39076800  0.28591900  0.87720600  1
  C  1713  1  0.41812700  0.28575000  0.87815700  1
  C  1714  1  0.43304200  0.27947800  0.85602000  1
  C  1715  1  0.41968300  0.27388800  0.83263800  1
  C  1716  1  0.39232700  0.27429400  0.83157000  1
  C  1717  1  0.28239000  0.37749000  0.85214300  1
  C  1718  1  0.27747000  0.39112600  0.87545300  1
  C  1719  1  0.27732500  0.41849300  0.87595800  1
  C  1720  1  0.28219500  0.43314200  0.85318700  1
  C  1721  1  0.28749500  0.41942500  0.83002900  1
  C  1722  1  0.28745700  0.39204500  0.82942300  1
  C  1723  1  0.18499100  0.28220800  0.85435800  1
  C  1724  1  0.16979400  0.28811600  0.83226900  1
  C  1725  1  0.14244200  0.28809600  0.83362400  1
  C  1726  1  0.12941500  0.28207500  0.85709000  1
  C  1727  1  0.14466200  0.27593300  0.87903300  1
  C  1728  1  0.17200700  0.27619900  0.87779600  1
  C  1729  1  0.28003500  0.18499500  0.85181500  1
  C  1730  1  0.27465900  0.17082100  0.82892800  1
  C  1731  1  0.28497900  0.17098000  0.87489800  1
  C  1732  1  0.28474800  0.14360400  0.87503400  1
  C  1733  1  0.27946000  0.12935500  0.85210800  1
  C  1734  1  0.27422200  0.14344500  0.82916700  1
  C  1765  1  0.28220700  0.78232100  0.63630800  1
  C  1766  1  0.29682700  0.79536600  0.61701300  1
  C  1767  1  0.29273300  0.79070400  0.59036000  1
  C  1768  1  0.27386300  0.77266300  0.58166600  1
  C  1769  1  0.25914000  0.75951200  0.60098700  1
  C  1772  1  0.26314900  0.76449600  0.62767300  1
  C  1776  1  0.28732900  0.78675000  0.66265900  1
  C  1778  1  0.27033400  0.76716500  0.55521300  1
  C  1780  1  0.27458000  0.78501200  0.08187810  1
  C  1781  1  0.26049300  0.79750300  0.10192300  1
  C  1782  1  0.26559900  0.79242800  0.12832600  1
  C  1783  1  0.28501600  0.77451500  0.13601500  1
  C  1784  1  0.29927000  0.76197600  0.11595500  1
  C  1787  1  0.29424300  0.76738100  0.08951910  1
  C  1791  1  0.26835600  0.78975500  0.05581110  1
  C  1793  1  0.28939000  0.76846400  0.16222000  1
  C  1795  1  0.55857900  0.28212100  0.85997300  1
  C  1796  1  0.53926100  0.29667600  0.87305400  1
  C  1797  1  0.51260900  0.29250400  0.86843300  1
  C  1798  1  0.50394500  0.27361700  0.85039800  1
  C  1799  1  0.52329100  0.25896500  0.83720000  1
  C  1802  1  0.54997100  0.26304600  0.84215100  1
  C  1806  1  0.58492400  0.28729400  0.86437800  1
  C  1808  1  0.47749400  0.27001300  0.84492500  1
  C  1810  1  0.00416494  0.27467300  0.86266900  1
  C  1811  1  0.02423290  0.26065600  0.87520100  1
  C  1812  1  0.05062590  0.26583600  0.87015500  1
  C  1813  1  0.05828090  0.28527100  0.85224600  1
  C  1814  1  0.03819290  0.29944700  0.83966000  1
  C  1817  1  0.01176690  0.29434200  0.84503000  1
  C  1821  1  0.97810800  0.26839200  0.86738900  1
  C  1823  1  0.08447990  0.28974700  0.84624300  1
  C  1825  1  0.78231800  0.55858900  0.35985200  1
  C  1826  1  0.79537500  0.53929800  0.37446500  1
  C  1827  1  0.79072400  0.51264100  0.37037400  1
  C  1828  1  0.77268100  0.50393900  0.35150900  1
  C  1829  1  0.75951800  0.52325600  0.33678700  1
  C  1832  1  0.76449000  0.54994400  0.34079800  1
  C  1836  1  0.78675000  0.58494100  0.36495800  1
  C  1838  1  0.76720400  0.47748200  0.34796900  1
  C  1840  1  0.78499500  0.00415494  0.35221700  1
  C  1841  1  0.79751700  0.02419390  0.33815200  1
  C  1842  1  0.79245400  0.05059690  0.34326000  1
  C  1843  1  0.77452100  0.05829190  0.36266000  1
  C  1844  1  0.76194500  0.03823390  0.37688600  1
  C  1847  1  0.76734000  0.01179790  0.37185800  1
  C  1851  1  0.78973000  0.97808600  0.34599700  1
  C  1853  1  0.76850300  0.08450090  0.36706100  1
  C  1855  1  0.78211000  0.28234600  0.08153310  1
  C  1856  1  0.79520600  0.29696200  0.10079500  1
  C  1857  1  0.79062700  0.29286100  0.12746200  1
  C  1858  1  0.77261700  0.27398400  0.13620400  1
  C  1859  1  0.75940300  0.25927200  0.11691200  1
  C  1862  1  0.76431100  0.26328500  0.09021410  1
  C  1866  1  0.78651500  0.28743200  0.05517210  1
  C  1868  1  0.76726400  0.27037100  0.16268000  1
  C  1870  1  0.78488600  0.27470800  0.63598000  1
  C  1871  1  0.79737900  0.26062500  0.61593500  1
  C  1872  1  0.79231800  0.26574800  0.58953500  1
  C  1873  1  0.77440800  0.28517100  0.58184500  1
  C  1874  1  0.76185700  0.29941200  0.60190900  1
  C  1877  1  0.76725100  0.29437000  0.62834500  1
  C  1881  1  0.78961300  0.26846200  0.66204300  1
  C  1883  1  0.76840400  0.28958900  0.55563400  1
  C  1885  1  0.28428200  0.55879100  0.85472900  1
  C  1886  1  0.29858700  0.54023700  0.84031400  1
  C  1887  1  0.29526700  0.51335900  0.84427500  1
  C  1888  1  0.27742800  0.50372400  0.86285700  1
  C  1889  1  0.26271200  0.52226800  0.87708800  1
  C  1892  1  0.26628200  0.54918300  0.87314900  1
  C  1896  1  0.28876800  0.58536900  0.85102300  1
  C  1898  1  0.27492300  0.47708600  0.86786200  1
  C  1900  1  0.27270200  0.00395494  0.85200700  1
  C  1901  1  0.25923700  0.02329090  0.83782500  1
  C  1902  1  0.26378900  0.04993890  0.84207500  1
  C  1903  1  0.28208100  0.05855590  0.86072400  1
  C  1904  1  0.29600400  0.03920890  0.87467900  1
  C  1907  1  0.29120600  0.01252790  0.87044400  1
  C  1911  1  0.26688400  0.97766500  0.84812600  1
  C  1913  1  0.28570400  0.08500190  0.86606900  1
  C  1915  1  0.55832100  0.78488600  0.35235300  1
  C  1916  1  0.53827500  0.79736700  0.33826300  1
  C  1917  1  0.51187600  0.79230400  0.34339000  1
  C  1918  1  0.50419000  0.77441400  0.36283100  1
  C  1919  1  0.52425600  0.76187900  0.37708100  1
  C  1922  1  0.55069000  0.76727600  0.37203800  1
  C  1926  1  0.58438400  0.78961300  0.34610400  1
  C  1928  1  0.47798300  0.76838800  0.36723500  1
  C  1930  1  0.00387594  0.78211000  0.36000300  1
  C  1931  1  0.02313590  0.79520300  0.37462400  1
  C  1932  1  0.04980290  0.79062100  0.37052700  1
  C  1933  1  0.05854890  0.77261800  0.35164400  1
  C  1934  1  0.03925890  0.75941300  0.33692300  1
  C  1937  1  0.01255890  0.76431300  0.34094000  1
  C  1941  1  0.97751400  0.78651300  0.36508700  1
  C  1943  1  0.08502490  0.76727000  0.34803200  1
  N  4  1  0.00267600  0.53836400  0.47986000  1
  N  8  1  0.00242900  0.47910700  0.47992100  1
  N  14  1  0.00254200  0.48053600  0.53915000  1
  N  20  1  0.00297900  0.53979500  0.53910800  1
  N  75  1  0.00971600  0.50879500  0.68714000  1
  N  76  1  0.00273400  0.33157400  0.51159000  1
  N  77  1  0.00126300  0.50601700  0.33172700  1
  N  78  1  0.00850600  0.68715500  0.50849600  1
  N  82  1  0.47980800  0.00236900  0.53834500  1
  N  86  1  0.47986800  0.00273200  0.47909900  1
  N  92  1  0.53910200  0.00285800  0.48052600  1
  N  98  1  0.53905900  0.00268200  0.53978500  1
  N  153  1  0.68708100  0.00979100  0.50885300  1
  N  154  1  0.50881000  0.00992700  0.33181900  1
  N  155  1  0.33166500  0.00120600  0.50605400  1
  N  156  1  0.50575500  0.00136400  0.68721700  1
  N  160  1  0.53834300  0.47980600  0.00235400  1
  N  164  1  0.47909800  0.47986000  0.00271900  1
  N  170  1  0.48051900  0.53909400  0.00288000  1
  N  176  1  0.53977900  0.53905700  0.00270300  1
  N  231  1  0.50880300  0.68707900  0.00973700  1
  N  232  1  0.33181500  0.50880800  0.00991400  1
  N  233  1  0.50602300  0.33166300  0.00122800  1
  N  234  1  0.68721500  0.50575100  0.00136400  1
  N  238  1  0.50295100  0.03855200  0.97999900  1
  N  242  1  0.50313400  0.97930200  0.97966500  1
  N  248  1  0.50290700  0.98033700  0.03891000  1
  N  254  1  0.50307900  0.03959700  0.03925500  1
  N  309  1  0.50984100  0.00840500  0.18711900  1
  N  310  1  0.51004100  0.83177600  0.00837200  1
  N  311  1  0.50859500  0.00919500  0.83172400  1
  N  312  1  0.50873700  0.18717100  0.00883800  1
  N  316  1  0.97999300  0.50300600  0.03861600  1
  N  320  1  0.97967100  0.50315500  0.97936600  1
  N  326  1  0.03891400  0.50291800  0.98041200  1
  N  332  1  0.03924900  0.50308900  0.03967200  1
  N  387  1  0.18711800  0.50985900  0.00845200  1
  N  388  1  0.00842200  0.51004300  0.83184600  1
  N  389  1  0.83172200  0.50860700  0.00920100  1
  N  390  1  0.00881800  0.50872100  0.18724100  1
  N  394  1  0.03838000  0.97983400  0.50256300  1
  N  398  1  0.97913100  0.97983000  0.50267800  1
  N  404  1  0.98047400  0.03905900  0.50240000  1
  N  410  1  0.03973700  0.03907700  0.50256500  1
  N  465  1  0.01083700  0.18735600  0.50272600  1
  N  466  1  0.83178200  0.00880700  0.51015600  1
  N  467  1  0.00647100  0.83161100  0.50135900  1
  N  468  1  0.18714700  0.00844000  0.50882800  1
  N  652  1  0.13857200  0.67426000  0.65458400  1
  N  656  1  0.13832500  0.61500300  0.65464500  1
  N  662  1  0.13843800  0.61643200  0.71387400  1
  N  668  1  0.13887500  0.67569100  0.71383200  1
  N  723  1  0.14561200  0.64469100  0.86186400  1
  N  724  1  0.13863000  0.46747000  0.68631400  1
  N  725  1  0.13715900  0.64191300  0.50645100  1
  N  726  1  0.14440200  0.82305100  0.68322000  1
  N  730  1  0.61570400  0.13826500  0.71306900  1
  N  734  1  0.61576400  0.13862800  0.65382300  1
  N  740  1  0.67499800  0.13875400  0.65525000  1
  N  746  1  0.67495500  0.13857800  0.71450900  1
  N  801  1  0.82297700  0.14568700  0.68357700  1
  N  802  1  0.64470600  0.14582300  0.50654300  1
  N  803  1  0.46756100  0.13710200  0.68077800  1
  N  804  1  0.64165100  0.13726000  0.86194100  1
  N  808  1  0.67423900  0.61570200  0.17707800  1
  N  812  1  0.61499400  0.61575600  0.17744300  1
  N  818  1  0.61641500  0.67499000  0.17760400  1
  N  824  1  0.67567500  0.67495300  0.17742700  1
  N  879  1  0.64469900  0.82297500  0.18446100  1
  N  880  1  0.46771100  0.64470400  0.18463800  1
  N  881  1  0.64191900  0.46755900  0.17595200  1
  N  882  1  0.82311100  0.64164700  0.17608800  1
  N  886  1  0.63884700  0.17444800  0.15472300  1
  N  890  1  0.63903000  0.11519800  0.15438900  1
  N  896  1  0.63880300  0.11623300  0.21363400  1
  N  902  1  0.63897500  0.17549300  0.21397900  1
  N  957  1  0.64573700  0.14430100  0.36184300  1
  N  958  1  0.64593700  0.96767200  0.18309600  1
  N  959  1  0.64449100  0.14509100  0.00644803  1
  N  960  1  0.64463300  0.32306700  0.18356200  1
  N  964  1  0.11588900  0.63890200  0.21334000  1
  N  968  1  0.11556700  0.63905100  0.15409000  1
  N  974  1  0.17481000  0.63881400  0.15513600  1
  N  980  1  0.17514500  0.63898500  0.21439600  1
  N  1035  1  0.32301400  0.64575500  0.18317600  1
  N  1036  1  0.14431800  0.64593900  0.00657003  1
  N  1037  1  0.96761800  0.64450300  0.18392500  1
  N  1038  1  0.14471400  0.64461700  0.36196500  1
  N  1042  1  0.17427600  0.11573000  0.67728700  1
  N  1046  1  0.11502700  0.11572600  0.67740200  1
  N  1052  1  0.11637000  0.17495500  0.67712400  1
  N  1058  1  0.17563300  0.17497300  0.67728900  1
  N  1113  1  0.14673300  0.32325200  0.67745000  1
  N  1114  1  0.96767800  0.14470300  0.68488000  1
  N  1115  1  0.14236700  0.96750700  0.67608300  1
  N  1116  1  0.32304300  0.14433600  0.68355200  1
  N  1300  1  0.27446900  0.81015700  0.82930800  1
  N  1304  1  0.27422200  0.75090000  0.82936900  1
  N  1310  1  0.27433500  0.75232900  0.88859800  1
  N  1316  1  0.27477200  0.81158800  0.88855600  1
  N  1371  1  0.28150900  0.78058800  0.03658810  1
  N  1372  1  0.27452700  0.60336700  0.86103800  1
  N  1373  1  0.27305600  0.77781000  0.68117500  1
  N  1374  1  0.28029900  0.95894800  0.85794400  1
  N  1378  1  0.75160100  0.27416200  0.88779300  1
  N  1382  1  0.75166100  0.27452500  0.82854700  1
  N  1388  1  0.81089500  0.27465100  0.82997400  1
  N  1394  1  0.81085200  0.27447500  0.88923300  1
  N  1449  1  0.95887400  0.28158400  0.85830100  1
  N  1450  1  0.78060300  0.28172000  0.68126700  1
  N  1451  1  0.60345800  0.27299900  0.85550200  1
  N  1452  1  0.77754800  0.27315700  0.03666510  1
  N  1456  1  0.81013600  0.75159900  0.35180200  1
  N  1460  1  0.75089100  0.75165300  0.35216700  1
  N  1466  1  0.75231200  0.81088700  0.35232800  1
  N  1472  1  0.81157200  0.81085000  0.35215100  1
  N  1527  1  0.78059600  0.95887200  0.35918500  1
  N  1528  1  0.60360800  0.78060100  0.35936200  1
  N  1529  1  0.77781600  0.60345600  0.35067600  1
  N  1530  1  0.95900800  0.77754400  0.35081200  1
  N  1534  1  0.77474400  0.31034500  0.32944700  1
  N  1538  1  0.77492700  0.25109500  0.32911300  1
  N  1544  1  0.77470000  0.25213000  0.38835800  1
  N  1550  1  0.77487200  0.31139000  0.38870300  1
  N  1605  1  0.78163400  0.28019800  0.53656700  1
  N  1606  1  0.78183400  0.10356900  0.35782000  1
  N  1607  1  0.78038800  0.28098800  0.18117200  1
  N  1608  1  0.78053000  0.45896400  0.35828600  1
  N  1612  1  0.25178600  0.77479900  0.38806400  1
  N  1616  1  0.25146400  0.77494800  0.32881400  1
  N  1622  1  0.31070700  0.77471100  0.32986000  1
  N  1628  1  0.31104200  0.77488200  0.38912000  1
  N  1683  1  0.45891100  0.78165200  0.35790000  1
  N  1684  1  0.28021500  0.78183600  0.18129400  1
  N  1685  1  0.10351500  0.78040000  0.35864900  1
  N  1686  1  0.28061100  0.78051400  0.53668900  1
  N  1690  1  0.31017300  0.25162700  0.85201100  1
  N  1694  1  0.25092400  0.25162300  0.85212600  1
  N  1700  1  0.25226700  0.31085200  0.85184800  1
  N  1706  1  0.31153000  0.31087000  0.85201300  1
  N  1761  1  0.28263000  0.45914900  0.85217400  1
  N  1762  1  0.10357500  0.28060000  0.85960400  1
  N  1763  1  0.27826400  0.10340400  0.85080700  1
  N  1764  1  0.45894000  0.28023300  0.85827600  1
  O  478  1  0.96845300  0.47035200  0.24511900  1
  O  493  1  0.04684800  0.47301900  0.77197800  1
  O  508  1  0.24511100  0.96828600  0.47036500  1
  O  523  1  0.77183200  0.04702500  0.47303500  1
  O  538  1  0.47035000  0.24503700  0.96845700  1
  O  553  1  0.47297100  0.77191400  0.04679400  1
  O  568  1  0.47025800  0.96858300  0.77391500  1
  O  583  1  0.47290500  0.04699700  0.24700000  1
  O  598  1  0.97357900  0.24314800  0.54621900  1
  O  613  1  0.04190800  0.77374500  0.54383900  1
  O  628  1  0.24700200  0.47293200  0.04701800  1
  O  643  1  0.77392100  0.47027000  0.96858000  1
  O  1126  1  0.10434900  0.60624800  0.41984300  1
  O  1141  1  0.18274400  0.60891500  0.94670200  1
  O  1156  1  0.38100700  0.10418200  0.64508900  1
  O  1171  1  0.90772800  0.18292100  0.64775900  1
  O  1186  1  0.60624600  0.38093300  0.14318100  1
  O  1201  1  0.60886700  0.90781000  0.22151800  1
  O  1216  1  0.60615400  0.10447900  0.94863900  1
  O  1231  1  0.60880100  0.18289300  0.42172400  1
  O  1246  1  0.10947500  0.37904400  0.72094300  1
  O  1261  1  0.17780400  0.90964100  0.71856300  1
  O  1276  1  0.38289800  0.60882800  0.22174200  1
  O  1291  1  0.90981700  0.60616600  0.14330400  1
  O  1774  1  0.24024600  0.74214500  0.59456700  1
  O  1789  1  0.31864100  0.74481200  0.12142600  1
  O  1804  1  0.51690400  0.24007900  0.81981300  1
  O  1819  1  0.04362490  0.31881800  0.82248300  1
  O  1834  1  0.74214300  0.51683000  0.31790500  1
  O  1849  1  0.74476400  0.04370690  0.39624200  1
  O  1864  1  0.74205100  0.24037600  0.12336300  1
  O  1879  1  0.74469800  0.31879000  0.59644800  1
  O  1894  1  0.24537200  0.51494100  0.89566700  1
  O  1909  1  0.31370100  0.04553790  0.89328700  1
  O  1924  1  0.51879500  0.74472500  0.39646600  1
  O  1939  1  0.04571390  0.74206300  0.31802800  1
