# generated using pymatgen
data_CuH2C10(O2F3)2
_symmetry_space_group_name_H-M   'P 1'
_cell_length_a   26.80370000
_cell_length_b   32.99730000
_cell_length_c   33.10410000
_cell_angle_alpha   89.96760000
_cell_angle_beta   89.86250000
_cell_angle_gamma   89.80100000
_symmetry_Int_Tables_number   1
_chemical_formula_structural   CuH2C10(O2F3)2
_chemical_formula_sum   'Cu32 H64 C320 O128 F192'
_cell_volume   29278.64685438
_cell_formula_units_Z   32
loop_
 _symmetry_equiv_pos_site_id
 _symmetry_equiv_pos_as_xyz
  1  'x, y, z'
loop_
 _atom_site_type_symbol
 _atom_site_label
 _atom_site_symmetry_multiplicity
 _atom_site_fract_x
 _atom_site_fract_y
 _atom_site_fract_z
 _atom_site_occupancy
  Cu  Cu1  1  0.99238000  0.00497000  0.32100000  1.0
  Cu  Cu2  1  0.99838000  0.00458000  0.24126000  1.0
  Cu  Cu3  1  0.50827000  0.49228000  0.81469000  1.0
  Cu  Cu4  1  0.50438000  0.49393000  0.73483000  1.0
  Cu  Cu5  1  0.00535000  0.98985000  0.68459000  1.0
  Cu  Cu6  1  0.00510000  0.99618000  0.76400000  1.0
  Cu  Cu7  1  0.49122000  0.50752000  0.18584000  1.0
  Cu  Cu8  1  0.49616000  0.50344000  0.26544000  1.0
  Cu  Cu9  1  0.00179000  0.30946000  0.99205000  1.0
  Cu  Cu10  1  0.00133000  0.22943000  0.99543000  1.0
  Cu  Cu11  1  0.49539000  0.81668000  0.50487000  1.0
  Cu  Cu12  1  0.49832000  0.73665000  0.50381000  1.0
  Cu  Cu13  1  0.99807000  0.68321000  0.00337000  1.0
  Cu  Cu14  1  0.99758000  0.76307000  0.00247000  1.0
  Cu  Cu15  1  0.50525000  0.19719000  0.49290000  1.0
  Cu  Cu16  1  0.49752000  0.27725000  0.49496000  1.0
  Cu  Cu17  1  0.77786000  0.73018000  0.27106000  1.0
  Cu  Cu18  1  0.71433000  0.77823000  0.23298000  1.0
  Cu  Cu19  1  0.72484000  0.22288000  0.75983000  1.0
  Cu  Cu20  1  0.79075000  0.26663000  0.71928000  1.0
  Cu  Cu21  1  0.71698000  0.23855000  0.22179000  1.0
  Cu  Cu22  1  0.78375000  0.27857000  0.26485000  1.0
  Cu  Cu23  1  0.72181000  0.76744000  0.77072000  1.0
  Cu  Cu24  1  0.78418000  0.72286000  0.72730000  1.0
  Cu  Cu25  1  0.27630000  0.23090000  0.22890000  1.0
  Cu  Cu26  1  0.21161000  0.27771000  0.26721000  1.0
  Cu  Cu27  1  0.28717000  0.76504000  0.78141000  1.0
  Cu  Cu28  1  0.22250000  0.72229000  0.73897000  1.0
  Cu  Cu29  1  0.27436000  0.77477000  0.23471000  1.0
  Cu  Cu30  1  0.20814000  0.73393000  0.27756000  1.0
  Cu  Cu31  1  0.22356000  0.26387000  0.72573000  1.0
  Cu  Cu32  1  0.28830000  0.22142000  0.76862000  1.0
  H  H1  1  0.86939000  0.78566000  0.06768000  1.0
  H  H2  1  0.84075000  0.67711000  0.16793000  1.0
  H  H3  1  0.43669000  0.17793000  0.60584000  1.0
  H  H4  1  0.29841000  0.27654000  0.61999000  1.0
  H  H5  1  0.91585000  0.20076000  0.89920000  1.0
  H  H6  1  0.82178000  0.31775000  0.84455000  1.0
  H  H7  1  0.35271000  0.73036000  0.44860000  1.0
  H  H8  1  0.36794000  0.81327000  0.32469000  1.0
  H  H9  1  0.87022000  0.07106000  0.21668000  1.0
  H  H10  1  0.84575000  0.17623000  0.32129000  1.0
  H  H11  1  0.43412000  0.60411000  0.83033000  1.0
  H  H12  1  0.29899000  0.61429000  0.72927000  1.0
  H  H13  1  0.90617000  0.89777000  0.66881000  1.0
  H  H14  1  0.83859000  0.84735000  0.79848000  1.0
  H  H15  1  0.42667000  0.38914000  0.17355000  1.0
  H  H16  1  0.29187000  0.38187000  0.27552000  1.0
  H  H17  1  0.11068000  0.20603000  0.07488000  1.0
  H  H18  1  0.15692000  0.32705000  0.15414000  1.0
  H  H19  1  0.64805000  0.74045000  0.55353000  1.0
  H  H20  1  0.62354000  0.80742000  0.68570000  1.0
  H  H21  1  0.08973000  0.66297000  0.90420000  1.0
  H  H22  1  0.19732000  0.78249000  0.88228000  1.0
  H  H23  1  0.64891000  0.20149000  0.43163000  1.0
  H  H24  1  0.61731000  0.28918000  0.31281000  1.0
  H  H25  1  0.13590000  0.94695000  0.23531000  1.0
  H  H26  1  0.12852000  0.82939000  0.32741000  1.0
  H  H27  1  0.59221000  0.38586000  0.82621000  1.0
  H  H28  1  0.70329000  0.36971000  0.70767000  1.0
  H  H29  1  0.15827000  0.04336000  0.75193000  1.0
  H  H30  1  0.12132000  0.17904000  0.69575000  1.0
  H  H31  1  0.65291000  0.55640000  0.22326000  1.0
  H  H32  1  0.59454000  0.69872000  0.23232000  1.0
  H  H33  1  0.16399000  0.27557000  0.94516000  1.0
  H  H34  1  0.10795000  0.24890000  0.80520000  1.0
  H  H35  1  0.60761000  0.71252000  0.42399000  1.0
  H  H36  1  0.66530000  0.83240000  0.34772000  1.0
  H  H37  1  0.09496000  0.79197000  0.08744000  1.0
  H  H38  1  0.16057000  0.67447000  0.16343000  1.0
  H  H39  1  0.65505000  0.20723000  0.54664000  1.0
  H  H40  1  0.61869000  0.27360000  0.67772000  1.0
  H  H41  1  0.10346000  0.91059000  0.79557000  1.0
  H  H42  1  0.17977000  0.83923000  0.67941000  1.0
  H  H43  1  0.63110000  0.44451000  0.27615000  1.0
  H  H44  1  0.64494000  0.33949000  0.17023000  1.0
  H  H45  1  0.06044000  0.12326000  0.32853000  1.0
  H  H46  1  0.20208000  0.12270000  0.23240000  1.0
  H  H47  1  0.55552000  0.61262000  0.72841000  1.0
  H  H48  1  0.71262000  0.62184000  0.80640000  1.0
  H  H49  1  0.92648000  0.66780000  0.89007000  1.0
  H  H50  1  0.80372000  0.77883000  0.87342000  1.0
  H  H51  1  0.36587000  0.29073000  0.43199000  1.0
  H  H52  1  0.35474000  0.18573000  0.32605000  1.0
  H  H53  1  0.92946000  0.32702000  0.10364000  1.0
  H  H54  1  0.79830000  0.22276000  0.11753000  1.0
  H  H55  1  0.43236000  0.71481000  0.61168000  1.0
  H  H56  1  0.30211000  0.81606000  0.64552000  1.0
  H  H57  1  0.93498000  0.10340000  0.66614000  1.0
  H  H58  1  0.79710000  0.11442000  0.76500000  1.0
  H  H59  1  0.38560000  0.59728000  0.17195000  1.0
  H  H60  1  0.31886000  0.64693000  0.30225000  1.0
  H  H61  1  0.95750000  0.87683000  0.26000000  1.0
  H  H62  1  0.77590000  0.88751000  0.28618000  1.0
  H  H63  1  0.37617000  0.42849000  0.71951000  1.0
  H  H64  1  0.36640000  0.31820000  0.82032000  1.0
  C  C1  1  0.93029000  0.05810000  0.27831000  1.0
  C  C2  1  0.06030000  0.95135000  0.28451000  1.0
  C  C3  1  0.06072000  0.05751000  0.28272000  1.0
  C  C4  1  0.93196000  0.95086000  0.27848000  1.0
  C  C5  1  0.43855000  0.54400000  0.77783000  1.0
  C  C6  1  0.57449000  0.44251000  0.77132000  1.0
  C  C7  1  0.56784000  0.54846000  0.77365000  1.0
  C  C8  1  0.44419000  0.43799000  0.77542000  1.0
  C  C9  1  0.94230000  0.93836000  0.73050000  1.0
  C  C10  1  0.06816000  0.04734000  0.72170000  1.0
  C  C11  1  0.07181000  0.94057000  0.72703000  1.0
  C  C12  1  0.93763000  0.04385000  0.71895000  1.0
  C  C13  1  0.43045000  0.45101000  0.22431000  1.0
  C  C14  1  0.55465000  0.56142000  0.22492000  1.0
  C  C15  1  0.56145000  0.45453000  0.22143000  1.0
  C  C16  1  0.42628000  0.55652000  0.23284000  1.0
  C  C17  1  0.93676000  0.26691000  0.94065000  1.0
  C  C18  1  0.06537000  0.27091000  0.04788000  1.0
  C  C19  1  0.06582000  0.26698000  0.94045000  1.0
  C  C20  1  0.93554000  0.27244000  0.04566000  1.0
  C  C21  1  0.56166000  0.77778000  0.55727000  1.0
  C  C22  1  0.43261000  0.77618000  0.45083000  1.0
  C  C23  1  0.43284000  0.77377000  0.55836000  1.0
  C  C24  1  0.56281000  0.77825000  0.45162000  1.0
  C  C25  1  0.06730000  0.72306000  0.95329000  1.0
  C  C26  1  0.93013000  0.72404000  0.05410000  1.0
  C  C27  1  0.93509000  0.72256000  0.94820000  1.0
  C  C28  1  0.05984000  0.72408000  0.05863000  1.0
  C  C29  1  0.43663000  0.23137000  0.54654000  1.0
  C  C30  1  0.56401000  0.24211000  0.43943000  1.0
  C  C31  1  0.56525000  0.24032000  0.54727000  1.0
  C  C32  1  0.43558000  0.23532000  0.44186000  1.0
  C  C33  1  0.80129000  0.81266000  0.26513000  1.0
  C  C34  1  0.69279000  0.69489000  0.23733000  1.0
  C  C35  1  0.79215000  0.74336000  0.18808000  1.0
  C  C36  1  0.69898000  0.76433000  0.31555000  1.0
  C  C37  1  0.80826000  0.25174000  0.80130000  1.0
  C  C38  1  0.70632000  0.23922000  0.67826000  1.0
  C  C39  1  0.80513000  0.18232000  0.72290000  1.0
  C  C40  1  0.71059000  0.30694000  0.75672000  1.0
  C  C41  1  0.79660000  0.19470000  0.25521000  1.0
  C  C42  1  0.70306000  0.32206000  0.23211000  1.0
  C  C43  1  0.80058000  0.27024000  0.18179000  1.0
  C  C44  1  0.69993000  0.24846000  0.30463000  1.0
  C  C45  1  0.69909000  0.68566000  0.75921000  1.0
  C  C46  1  0.80630000  0.80488000  0.73815000  1.0
  C  C47  1  0.70461000  0.76124000  0.68729000  1.0
  C  C48  1  0.80176000  0.72978000  0.81061000  1.0
  C  C49  1  0.29399000  0.24643000  0.31021000  1.0
  C  C50  1  0.19551000  0.26064000  0.18499000  1.0
  C  C51  1  0.29444000  0.31493000  0.23185000  1.0
  C  C52  1  0.19321000  0.19462000  0.26718000  1.0
  C  C53  1  0.30498000  0.75565000  0.69857000  1.0
  C  C54  1  0.20636000  0.73036000  0.82255000  1.0
  C  C55  1  0.30395000  0.68131000  0.77317000  1.0
  C  C56  1  0.20427000  0.80536000  0.74861000  1.0
  C  C57  1  0.19687000  0.81879000  0.27038000  1.0
  C  C58  1  0.28850000  0.69163000  0.24254000  1.0
  C  C59  1  0.18976000  0.74391000  0.19504000  1.0
  C  C60  1  0.29204000  0.76286000  0.31809000  1.0
  C  C61  1  0.30556000  0.23084000  0.68528000  1.0
  C  C62  1  0.20501000  0.25468000  0.80811000  1.0
  C  C63  1  0.30563000  0.30439000  0.75924000  1.0
  C  C64  1  0.20744000  0.18017000  0.73462000  1.0
  C  C65  1  0.86321000  0.76195000  0.08971000  1.0
  C  C66  1  0.89056000  0.72562000  0.08600000  1.0
  C  C67  1  0.88152000  0.69386000  0.11417000  1.0
  C  C68  1  0.84733000  0.70068000  0.14581000  1.0
  C  C69  1  0.82204000  0.73771000  0.15057000  1.0
  C  C70  1  0.82937000  0.76883000  0.12156000  1.0
  C  C71  1  0.80355000  0.80984000  0.12473000  1.0
  C  C72  1  0.90883000  0.65345000  0.11241000  1.0
  C  C73  1  0.40567000  0.19884000  0.60894000  1.0
  C  C74  1  0.39892000  0.22855000  0.57909000  1.0
  C  C75  1  0.35804000  0.25567000  0.58202000  1.0
  C  C76  1  0.32811000  0.25446000  0.61678000  1.0
  C  C77  1  0.33663000  0.22649000  0.64816000  1.0
  C  C78  1  0.37488000  0.19687000  0.64336000  1.0
  C  C79  1  0.38380000  0.16329000  0.67394000  1.0
  C  C80  1  0.34555000  0.28592000  0.54886000  1.0
  C  C81  1  0.89502000  0.22643000  0.88774000  1.0
  C  C82  1  0.90012000  0.26436000  0.90682000  1.0
  C  C83  1  0.87223000  0.29797000  0.89181000  1.0
  C  C84  1  0.84257000  0.29253000  0.85712000  1.0
  C  C85  1  0.83906000  0.25488000  0.83789000  1.0
  C  C86  1  0.86535000  0.22117000  0.85333000  1.0
  C  C87  1  0.86423000  0.18034000  0.83219000  1.0
  C  C88  1  0.87281000  0.33931000  0.91198000  1.0
  C  C89  1  0.35547000  0.74821000  0.42122000  1.0
  C  C90  1  0.39530000  0.77539000  0.41784000  1.0
  C  C91  1  0.40010000  0.79921000  0.38246000  1.0
  C  C92  1  0.36443000  0.79501000  0.35170000  1.0
  C  C93  1  0.32481000  0.76720000  0.35441000  1.0
  C  C94  1  0.31989000  0.74350000  0.39028000  1.0
  C  C95  1  0.27835000  0.71277000  0.39626000  1.0
  C  C96  1  0.44425000  0.82722000  0.37597000  1.0
  C  C97  1  0.86499000  0.09422000  0.23946000  1.0
  C  C98  1  0.89232000  0.09117000  0.27556000  1.0
  C  C99  1  0.88472000  0.12085000  0.30618000  1.0
  C  C100  1  0.85155000  0.15311000  0.29854000  1.0
  C  C101  1  0.82601000  0.15700000  0.26176000  1.0
  C  C102  1  0.83217000  0.12666000  0.23176000  1.0
  C  C103  1  0.80622000  0.12907000  0.19105000  1.0
  C  C104  1  0.91226000  0.11980000  0.34628000  1.0
  C  C105  1  0.40390000  0.60629000  0.80877000  1.0
  C  C106  1  0.39946000  0.57589000  0.77939000  1.0
  C  C107  1  0.35939000  0.57767000  0.75157000  1.0
  C  C108  1  0.32807000  0.61191000  0.75179000  1.0
  C  C109  1  0.33479000  0.64405000  0.77913000  1.0
  C  C110  1  0.37181000  0.64015000  0.80966000  1.0
  C  C111  1  0.37813000  0.67117000  0.84316000  1.0
  C  C112  1  0.34936000  0.54384000  0.72159000  1.0
  C  C113  1  0.89162000  0.88724000  0.69746000  1.0
  C  C114  1  0.90717000  0.90635000  0.73356000  1.0
  C  C115  1  0.88722000  0.89187000  0.77117000  1.0
  C  C116  1  0.85367000  0.85922000  0.77050000  1.0
  C  C117  1  0.83981000  0.84006000  0.73464000  1.0
  C  C118  1  0.85837000  0.85435000  0.69737000  1.0
  C  C119  1  0.84253000  0.83538000  0.65763000  1.0
  C  C120  1  0.90082000  0.90942000  0.81237000  1.0
  C  C121  1  0.39680000  0.38735000  0.19551000  1.0
  C  C122  1  0.39254000  0.41833000  0.22435000  1.0
  C  C123  1  0.35260000  0.41733000  0.25242000  1.0
  C  C124  1  0.32101000  0.38349000  0.25289000  1.0
  C  C125  1  0.32696000  0.35105000  0.22572000  1.0
  C  C126  1  0.36442000  0.35376000  0.19532000  1.0
  C  C127  1  0.37066000  0.32183000  0.16263000  1.0
  C  C128  1  0.34221000  0.45227000  0.28108000  1.0
  C  C129  1  0.12021000  0.23283000  0.09198000  1.0
  C  C130  1  0.10015000  0.27072000  0.08024000  1.0
  C  C131  1  0.11445000  0.30592000  0.10267000  1.0
  C  C132  1  0.14624000  0.30103000  0.13626000  1.0
  C  C133  1  0.16481000  0.26307000  0.14793000  1.0
  C  C134  1  0.15190000  0.22828000  0.12535000  1.0
  C  C135  1  0.16957000  0.18607000  0.13726000  1.0
  C  C136  1  0.09576000  0.34846000  0.09287000  1.0
  C  C137  1  0.64357000  0.75510000  0.58259000  1.0
  C  C138  1  0.60002000  0.77771000  0.58927000  1.0
  C  C139  1  0.59306000  0.79773000  0.62662000  1.0
  C  C140  1  0.62944000  0.79296000  0.65676000  1.0
  C  C141  1  0.67244000  0.76885000  0.65107000  1.0
  C  C142  1  0.68063000  0.75080000  0.61241000  1.0
  C  C143  1  0.72745000  0.72674000  0.60203000  1.0
  C  C144  1  0.54627000  0.82237000  0.63548000  1.0
  C  C145  1  0.11340000  0.68915000  0.89976000  1.0
  C  C146  1  0.10683000  0.72330000  0.92488000  1.0
  C  C147  1  0.13970000  0.75690000  0.91978000  1.0
  C  C148  1  0.17363000  0.75648000  0.88735000  1.0
  C  C149  1  0.17576000  0.72445000  0.85960000  1.0
  C  C150  1  0.14717000  0.68917000  0.86707000  1.0
  C  C151  1  0.15175000  0.65164000  0.84078000  1.0
  C  C152  1  0.14094000  0.79284000  0.94866000  1.0
  C  C153  1  0.64229000  0.22070000  0.40563000  1.0
  C  C154  1  0.59920000  0.24513000  0.40511000  1.0
  C  C155  1  0.58951000  0.27032000  0.37118000  1.0
  C  C156  1  0.62373000  0.27022000  0.33904000  1.0
  C  C157  1  0.66680000  0.24621000  0.33989000  1.0
  C  C158  1  0.67672000  0.22107000  0.37345000  1.0
  C  C159  1  0.72291000  0.19441000  0.37462000  1.0
  C  C160  1  0.54271000  0.29629000  0.36800000  1.0
  C  C161  1  0.13488000  0.92174000  0.25621000  1.0
  C  C162  1  0.09674000  0.92044000  0.28545000  1.0
  C  C163  1  0.09627000  0.88776000  0.31360000  1.0
  C  C164  1  0.13070000  0.85583000  0.30815000  1.0
  C  C165  1  0.16782000  0.85677000  0.27802000  1.0
  C  C166  1  0.17305000  0.89255000  0.25449000  1.0
  C  C167  1  0.21901000  0.90147000  0.22897000  1.0
  C  C168  1  0.05743000  0.88425000  0.34706000  1.0
  C  C169  1  0.61724000  0.38266000  0.80067000  1.0
  C  C170  1  0.61428000  0.41107000  0.76911000  1.0
  C  C171  1  0.64792000  0.40773000  0.73603000  1.0
  C  C172  1  0.67971000  0.37382000  0.73398000  1.0
  C  C173  1  0.68024000  0.34395000  0.76422000  1.0
  C  C174  1  0.65020000  0.34941000  0.79919000  1.0
  C  C175  1  0.65234000  0.32051000  0.83489000  1.0
  C  C176  1  0.65067000  0.43935000  0.70268000  1.0
  C  C177  1  0.15130000  0.07320000  0.73944000  1.0
  C  C178  1  0.10553000  0.07997000  0.72032000  1.0
  C  C179  1  0.09467000  0.11845000  0.70390000  1.0
  C  C180  1  0.13016000  0.14935000  0.70767000  1.0
  C  C181  1  0.17563000  0.14353000  0.72827000  1.0
  C  C182  1  0.18703000  0.10413000  0.74366000  1.0
  C  C183  1  0.23567000  0.09419000  0.76510000  1.0
  C  C184  1  0.04405000  0.12777000  0.68571000  1.0
  C  C185  1  0.64079000  0.58772000  0.22483000  1.0
  C  C186  1  0.58952000  0.59582000  0.22529000  1.0
  C  C187  1  0.57227000  0.63628000  0.22700000  1.0
  C  C188  1  0.60739000  0.66770000  0.22962000  1.0
  C  C189  1  0.65899000  0.65985000  0.23056000  1.0
  C  C190  1  0.67618000  0.61914000  0.22692000  1.0
  C  C191  1  0.73130000  0.60848000  0.22483000  1.0
  C  C192  1  0.51689000  0.64596000  0.22722000  1.0
  C  C193  1  0.15235000  0.26998000  0.91435000  1.0
  C  C194  1  0.10134000  0.26507000  0.90661000  1.0
  C  C195  1  0.08471000  0.25782000  0.86681000  1.0
  C  C196  1  0.12011000  0.25506000  0.83576000  1.0
  C  C197  1  0.17134000  0.25916000  0.84327000  1.0
  C  C198  1  0.18805000  0.26717000  0.88310000  1.0
  C  C199  1  0.24287000  0.27341000  0.89255000  1.0
  C  C200  1  0.02971000  0.25315000  0.85725000  1.0
  C  C201  1  0.62007000  0.73897000  0.40757000  1.0
  C  C202  1  0.60189000  0.77742000  0.41909000  1.0
  C  C203  1  0.62024000  0.81225000  0.39835000  1.0
  C  C204  1  0.65236000  0.80654000  0.36492000  1.0
  C  C205  1  0.66855000  0.76792000  0.35284000  1.0
  C  C206  1  0.65304000  0.73349000  0.37504000  1.0
  C  C207  1  0.66908000  0.69074000  0.36350000  1.0
  C  C208  1  0.60712000  0.85525000  0.41109000  1.0
  C  C209  1  0.10877000  0.76577000  0.10363000  1.0
  C  C210  1  0.09454000  0.72655000  0.09105000  1.0
  C  C211  1  0.11529000  0.69251000  0.11208000  1.0
  C  C212  1  0.14571000  0.69966000  0.14620000  1.0
  C  C213  1  0.15846000  0.73889000  0.15855000  1.0
  C  C214  1  0.14040000  0.77248000  0.13653000  1.0
  C  C215  1  0.15384000  0.81555000  0.14798000  1.0
  C  C216  1  0.10685000  0.64885000  0.09906000  1.0
  C  C217  1  0.64746000  0.22173000  0.57537000  1.0
  C  C218  1  0.60158000  0.24167000  0.58063000  1.0
  C  C219  1  0.59061000  0.26096000  0.61791000  1.0
  C  C220  1  0.62625000  0.25929000  0.64887000  1.0
  C  C221  1  0.67217000  0.23966000  0.64350000  1.0
  C  C222  1  0.68344000  0.22081000  0.60624000  1.0
  C  C223  1  0.73293000  0.19967000  0.59940000  1.0
  C  C224  1  0.54100000  0.28201000  0.62566000  1.0
  C  C225  1  0.12011000  0.89566000  0.76973000  1.0
  C  C226  1  0.10796000  0.90909000  0.73042000  1.0
  C  C227  1  0.13100000  0.88896000  0.69678000  1.0
  C  C228  1  0.16265000  0.85549000  0.70428000  1.0
  C  C229  1  0.17277000  0.84189000  0.74345000  1.0
  C  C230  1  0.15118000  0.86215000  0.77678000  1.0
  C  C231  1  0.15720000  0.84619000  0.81949000  1.0
  C  C232  1  0.12326000  0.90200000  0.65310000  1.0
  C  C233  1  0.63421000  0.42135000  0.25311000  1.0
  C  C234  1  0.60169000  0.42330000  0.21991000  1.0
  C  C235  1  0.60624000  0.39389000  0.18880000  1.0
  C  C236  1  0.64164000  0.36257000  0.19332000  1.0
  C  C237  1  0.67224000  0.35942000  0.22764000  1.0
  C  C238  1  0.66920000  0.38990000  0.25788000  1.0
  C  C239  1  0.70074000  0.38876000  0.29603000  1.0
  C  C240  1  0.57288000  0.39420000  0.15175000  1.0
  C  C241  1  0.09200000  0.12335000  0.30808000  1.0
  C  C242  1  0.09924000  0.08964000  0.28302000  1.0
  C  C243  1  0.14125000  0.08845000  0.25702000  1.0
  C  C244  1  0.17152000  0.12292000  0.25385000  1.0
  C  C245  1  0.16222000  0.15820000  0.27651000  1.0
  C  C246  1  0.12314000  0.15765000  0.30582000  1.0
  C  C247  1  0.11353000  0.19267000  0.33462000  1.0
  C  C248  1  0.15505000  0.05064000  0.23336000  1.0
  C  C249  1  0.58986000  0.61481000  0.74546000  1.0
  C  C250  1  0.60235000  0.58323000  0.77200000  1.0
  C  C251  1  0.64723000  0.58526000  0.79452000  1.0
  C  C252  1  0.67815000  0.61938000  0.78957000  1.0
  C  C253  1  0.66522000  0.65091000  0.76317000  1.0
  C  C254  1  0.62057000  0.64875000  0.74061000  1.0
  C  C255  1  0.60653000  0.68136000  0.71028000  1.0
  C  C256  1  0.66305000  0.55135000  0.82277000  1.0
  C  C257  1  0.89887000  0.69158000  0.88657000  1.0
  C  C258  1  0.89732000  0.72281000  0.91538000  1.0
  C  C259  1  0.86062000  0.75371000  0.91171000  1.0
  C  C260  1  0.82984000  0.75406000  0.87743000  1.0
  C  C261  1  0.83306000  0.72407000  0.84737000  1.0
  C  C262  1  0.86690000  0.69125000  0.85280000  1.0
  C  C263  1  0.86970000  0.65590000  0.82351000  1.0
  C  C264  1  0.85325000  0.78633000  0.94364000  1.0
  C  C265  1  0.36339000  0.26793000  0.40859000  1.0
  C  C266  1  0.39658000  0.23486000  0.40997000  1.0
  C  C267  1  0.39339000  0.20437000  0.37983000  1.0
  C  C268  1  0.35752000  0.20874000  0.34921000  1.0
  C  C269  1  0.32570000  0.24265000  0.34688000  1.0
  C  C270  1  0.32819000  0.27272000  0.37751000  1.0
  C  C271  1  0.29562000  0.31056000  0.37705000  1.0
  C  C272  1  0.42858000  0.16811000  0.37856000  1.0
  C  C273  1  0.90012000  0.30471000  0.10664000  1.0
  C  C274  1  0.89689000  0.27391000  0.07758000  1.0
  C  C275  1  0.85805000  0.24501000  0.08035000  1.0
  C  C276  1  0.82654000  0.24590000  0.11427000  1.0
  C  C277  1  0.83188000  0.27499000  0.14496000  1.0
  C  C278  1  0.86780000  0.30624000  0.14013000  1.0
  C  C279  1  0.87255000  0.34118000  0.16975000  1.0
  C  C280  1  0.84951000  0.21322000  0.04790000  1.0
  C  C281  1  0.40354000  0.73680000  0.61865000  1.0
  C  C282  1  0.39793000  0.77079000  0.59337000  1.0
  C  C283  1  0.36042000  0.79997000  0.60269000  1.0
  C  C284  1  0.33059000  0.79412000  0.63747000  1.0
  C  C285  1  0.33684000  0.76016000  0.66244000  1.0
  C  C286  1  0.37364000  0.73095000  0.65296000  1.0
  C  C287  1  0.38127000  0.69374000  0.67919000  1.0
  C  C288  1  0.35107000  0.83664000  0.57604000  1.0
  C  C289  1  0.90454000  0.10621000  0.68750000  1.0
  C  C290  1  0.89865000  0.07568000  0.71653000  1.0
  C  C291  1  0.85793000  0.07766000  0.74370000  1.0
  C  C292  1  0.82702000  0.11213000  0.74310000  1.0
  C  C293  1  0.83566000  0.14484000  0.71662000  1.0
  C  C294  1  0.87462000  0.14133000  0.68745000  1.0
  C  C295  1  0.88641000  0.17449000  0.65708000  1.0
  C  C296  1  0.84683000  0.04365000  0.77327000  1.0
  C  C297  1  0.37083000  0.60764000  0.20061000  1.0
  C  C298  1  0.38719000  0.58880000  0.23652000  1.0
  C  C299  1  0.36730000  0.60261000  0.27424000  1.0
  C  C300  1  0.33333333  0.63514000  0.27405000  1.0
  C  C301  1  0.31931000  0.65477000  0.23840000  1.0
  C  C302  1  0.33731000  0.64052000  0.20090000  1.0
  C  C303  1  0.32121000  0.65987000  0.16138000  1.0
  C  C304  1  0.38215000  0.58479000  0.31499000  1.0
  C  C305  1  0.91777000  0.87862000  0.26589000  1.0
  C  C306  1  0.89754000  0.91622000  0.27668000  1.0
  C  C307  1  0.84588000  0.91994000  0.28440000  1.0
  C  C308  1  0.81568000  0.88526000  0.28077000  1.0
  C  C309  1  0.83592000  0.84727000  0.27031000  1.0
  C  C310  1  0.88802000  0.84379000  0.26274000  1.0
  C  C311  1  0.91230000  0.80403000  0.25015000  1.0
  C  C312  1  0.82297000  0.96058000  0.29536000  1.0
  C  C313  1  0.37402000  0.40416000  0.74139000  1.0
  C  C314  1  0.40656000  0.40498000  0.77457000  1.0
  C  C315  1  0.40387000  0.37359000  0.80384000  1.0
  C  C316  1  0.36888000  0.34236000  0.79827000  1.0
  C  C317  1  0.33737000  0.34093000  0.76439000  1.0
  C  C318  1  0.33978000  0.37264000  0.73534000  1.0
  C  C319  1  0.30822000  0.37297000  0.69718000  1.0
  C  C320  1  0.43868000  0.37184000  0.83998000  1.0
  O  O1  1  0.94499000  0.04499000  0.31228000  1.0
  O  O2  1  0.03956000  0.96379000  0.31673000  1.0
  O  O3  1  0.04272000  0.04392000  0.31566000  1.0
  O  O4  1  0.94366000  0.96598000  0.31241000  1.0
  O  O5  1  0.95163000  0.96362000  0.24599000  1.0
  O  O6  1  0.04499000  0.04462000  0.24905000  1.0
  O  O7  1  0.04839000  0.96695000  0.25074000  1.0
  O  O8  1  0.94832000  0.04328000  0.24595000  1.0
  O  O9  1  0.45760000  0.53070000  0.81040000  1.0
  O  O10  1  0.55857000  0.45443000  0.80553000  1.0
  O  O11  1  0.55454000  0.53347000  0.80730000  1.0
  O  O12  1  0.46108000  0.45153000  0.80855000  1.0
  O  O13  1  0.45892000  0.45282000  0.74210000  1.0
  O  O14  1  0.55019000  0.53501000  0.74077000  1.0
  O  O15  1  0.55536000  0.45632000  0.73911000  1.0
  O  O16  1  0.45406000  0.53130000  0.74388000  1.0
  O  O17  1  0.95839000  0.94965000  0.69602000  1.0
  O  O18  1  0.05240000  0.03123000  0.68929000  1.0
  O  O19  1  0.05532000  0.95189000  0.69298000  1.0
  O  O20  1  0.95505000  0.02839000  0.68675000  1.0
  O  O21  1  0.95493000  0.03360000  0.75315000  1.0
  O  O22  1  0.05445000  0.95695000  0.75895000  1.0
  O  O23  1  0.05227000  0.03571000  0.75585000  1.0
  O  O24  1  0.95841000  0.95575000  0.76187000  1.0
  O  O25  1  0.44521000  0.46597000  0.19104000  1.0
  O  O26  1  0.53731000  0.54887000  0.19157000  1.0
  O  O27  1  0.54284000  0.46949000  0.18943000  1.0
  O  O28  1  0.44079000  0.54482000  0.19806000  1.0
  O  O29  1  0.44611000  0.54153000  0.26411000  1.0
  O  O30  1  0.54571000  0.46599000  0.25576000  1.0
  O  O31  1  0.54194000  0.54511000  0.25813000  1.0
  O  O32  1  0.44850000  0.46338000  0.25753000  1.0
  O  O33  1  0.95399000  0.30074000  0.95227000  1.0
  O  O34  1  0.04888000  0.30371000  0.03289000  1.0
  O  O35  1  0.05103000  0.30118000  0.95338000  1.0
  O  O36  1  0.95211000  0.30523000  0.03077000  1.0
  O  O37  1  0.95294000  0.23850000  0.03431000  1.0
  O  O38  1  0.04910000  0.23425000  0.95524000  1.0
  O  O39  1  0.04970000  0.23734000  0.03411000  1.0
  O  O40  1  0.95261000  0.23430000  0.95654000  1.0
  O  O41  1  0.54380000  0.81103000  0.54441000  1.0
  O  O42  1  0.44769000  0.80973000  0.46493000  1.0
  O  O43  1  0.44703000  0.80789000  0.54474000  1.0
  O  O44  1  0.54525000  0.81122000  0.46558000  1.0
  O  O45  1  0.54628000  0.74473000  0.46480000  1.0
  O  O46  1  0.45047000  0.74125000  0.54357000  1.0
  O  O47  1  0.44939000  0.74292000  0.46466000  1.0
  O  O48  1  0.54701000  0.74419000  0.54287000  1.0
  O  O49  1  0.04866000  0.68967000  0.96518000  1.0
  O  O50  1  0.94751000  0.69054000  0.04139000  1.0
  O  O51  1  0.95096000  0.68915000  0.96247000  1.0
  O  O52  1  0.04485000  0.69041000  0.04463000  1.0
  O  O53  1  0.04283000  0.75678000  0.04364000  1.0
  O  O54  1  0.95198000  0.75585000  0.96139000  1.0
  O  O55  1  0.94689000  0.75710000  0.03993000  1.0
  O  O56  1  0.04942000  0.75619000  0.96630000  1.0
  O  O57  1  0.45676000  0.19932000  0.53277000  1.0
  O  O58  1  0.55194000  0.20741000  0.45279000  1.0
  O  O59  1  0.55328000  0.20634000  0.53219000  1.0
  O  O60  1  0.45503000  0.20263000  0.45467000  1.0
  O  O61  1  0.44953000  0.26918000  0.45602000  1.0
  O  O62  1  0.54601000  0.27295000  0.53428000  1.0
  O  O63  1  0.54561000  0.27404000  0.45483000  1.0
  O  O64  1  0.44995000  0.26593000  0.53376000  1.0
  O  O65  1  0.81313000  0.77783000  0.27832000  1.0
  O  O66  1  0.73303000  0.69013000  0.25687000  1.0
  O  O67  1  0.80637000  0.72582000  0.22026000  1.0
  O  O68  1  0.73786000  0.74228000  0.31527000  1.0
  O  O69  1  0.68501000  0.78262000  0.28373000  1.0
  O  O70  1  0.75360000  0.76580000  0.18835000  1.0
  O  O71  1  0.67989000  0.72999000  0.22523000  1.0
  O  O72  1  0.76025000  0.81805000  0.24670000  1.0
  O  O73  1  0.76829000  0.23130000  0.80237000  1.0
  O  O74  1  0.69192000  0.22266000  0.71084000  1.0
  O  O75  1  0.76470000  0.18010000  0.74291000  1.0
  O  O76  1  0.69596000  0.27290000  0.76998000  1.0
  O  O77  1  0.74978000  0.30927000  0.73514000  1.0
  O  O78  1  0.82058000  0.21649000  0.71065000  1.0
  O  O79  1  0.74780000  0.25757000  0.67627000  1.0
  O  O80  1  0.82238000  0.26917000  0.76906000  1.0
  O  O81  1  0.75678000  0.19422000  0.23456000  1.0
  O  O82  1  0.68777000  0.28922000  0.21648000  1.0
  O  O83  1  0.75980000  0.25087000  0.17959000  1.0
  O  O84  1  0.68512000  0.23409000  0.27122000  1.0
  O  O85  1  0.74107000  0.26712000  0.30734000  1.0
  O  O86  1  0.81553000  0.28375000  0.21549000  1.0
  O  O87  1  0.74340000  0.32256000  0.25210000  1.0
  O  O88  1  0.81217000  0.22765000  0.27041000  1.0
  O  O89  1  0.68666000  0.71943000  0.77458000  1.0
  O  O90  1  0.76710000  0.80807000  0.75952000  1.0
  O  O91  1  0.69207000  0.77650000  0.72108000  1.0
  O  O92  1  0.76237000  0.75120000  0.81299000  1.0
  O  O93  1  0.81550000  0.71540000  0.77679000  1.0
  O  O94  1  0.74263000  0.73834000  0.68522000  1.0
  O  O95  1  0.81816000  0.77141000  0.72183000  1.0
  O  O96  1  0.73960000  0.68168000  0.73964000  1.0
  O  O97  1  0.30808000  0.22887000  0.27803000  1.0
  O  O98  1  0.23517000  0.23962000  0.18509000  1.0
  O  O99  1  0.30800000  0.28014000  0.21954000  1.0
  O  O100  1  0.23331000  0.19049000  0.24690000  1.0
  O  O101  1  0.17883000  0.22967000  0.27775000  1.0
  O  O102  1  0.25404000  0.31889000  0.25161000  1.0
  O  O103  1  0.18141000  0.27927000  0.21664000  1.0
  O  O104  1  0.25392000  0.26710000  0.31057000  1.0
  O  O105  1  0.31868000  0.77130000  0.73174000  1.0
  O  O106  1  0.24592000  0.75140000  0.82437000  1.0
  O  O107  1  0.31848000  0.71516000  0.78690000  1.0
  O  O108  1  0.24409000  0.80744000  0.76916000  1.0
  O  O109  1  0.19074000  0.77210000  0.73285000  1.0
  O  O110  1  0.26411000  0.67938000  0.75251000  1.0
  O  O111  1  0.19154000  0.71640000  0.78892000  1.0
  O  O112  1  0.26530000  0.73483000  0.69643000  1.0
  O  O113  1  0.23644000  0.81931000  0.24939000  1.0
  O  O114  1  0.30318000  0.72450000  0.22673000  1.0
  O  O115  1  0.22992000  0.76414000  0.19298000  1.0
  O  O116  1  0.30660000  0.77717000  0.28437000  1.0
  O  O117  1  0.25045000  0.74481000  0.32033000  1.0
  O  O118  1  0.17572000  0.72843000  0.22829000  1.0
  O  O119  1  0.24942000  0.69063000  0.26431000  1.0
  O  O120  1  0.18040000  0.78529000  0.28391000  1.0
  O  O121  1  0.26544000  0.25129000  0.68341000  1.0
  O  O122  1  0.19138000  0.26950000  0.77452000  1.0
  O  O123  1  0.26548000  0.30627000  0.73912000  1.0
  O  O124  1  0.19350000  0.21388000  0.71978000  1.0
  O  O125  1  0.24692000  0.17849000  0.75557000  1.0
  O  O126  1  0.31965000  0.27095000  0.77456000  1.0
  O  O127  1  0.24521000  0.23441000  0.81085000  1.0
  O  O128  1  0.31976000  0.21611000  0.71879000  1.0
  F  F1  1  0.82004000  0.83671000  0.09550000  1.0
  F  F2  1  0.81299000  0.82703000  0.16203000  1.0
  F  F3  1  0.75270000  0.80513000  0.11974000  1.0
  F  F4  1  0.95967000  0.65983000  0.11461000  1.0
  F  F5  1  0.89730000  0.63363000  0.07685000  1.0
  F  F6  1  0.89578000  0.62815000  0.14408000  1.0
  F  F7  1  0.41580000  0.13380000  0.65905000  1.0
  F  F8  1  0.33918000  0.14456000  0.68339000  1.0
  F  F9  1  0.40489000  0.17918000  0.70853000  1.0
  F  F10  1  0.34874000  0.26745000  0.51143000  1.0
  F  F11  1  0.37828000  0.31818000  0.55040000  1.0
  F  F12  1  0.29753000  0.30101000  0.55296000  1.0
  F  F13  1  0.89443000  0.15199000  0.85105000  1.0
  F  F14  1  0.88097000  0.18482000  0.79293000  1.0
  F  F15  1  0.81611000  0.16542000  0.83193000  1.0
  F  F16  1  0.91858000  0.35754000  0.90583000  1.0
  F  F17  1  0.86383000  0.33524000  0.95297000  1.0
  F  F18  1  0.83640000  0.36479000  0.89650000  1.0
  F  F19  1  0.28269000  0.69223000  0.43259000  1.0
  F  F20  1  0.27978000  0.68423000  0.36572000  1.0
  F  F21  1  0.23262000  0.73233000  0.39634000  1.0
  F  F22  1  0.48814000  0.80583000  0.38156000  1.0
  F  F23  1  0.44192000  0.85914000  0.40295000  1.0
  F  F24  1  0.44519000  0.84326000  0.33732000  1.0
  F  F25  1  0.81628000  0.16592000  0.17293000  1.0
  F  F26  1  0.75530000  0.12485000  0.19625000  1.0
  F  F27  1  0.82212000  0.09888000  0.16494000  1.0
  F  F28  1  0.96319000  0.11912000  0.33956000  1.0
  F  F29  1  0.89828000  0.08582000  0.36795000  1.0
  F  F30  1  0.90173000  0.15342000  0.36988000  1.0
  F  F31  1  0.40766000  0.65638000  0.87415000  1.0
  F  F32  1  0.33218000  0.68108000  0.85964000  1.0
  F  F33  1  0.40064000  0.70562000  0.82794000  1.0
  F  F34  1  0.35304000  0.50658000  0.74056000  1.0
  F  F35  1  0.38341000  0.54574000  0.69022000  1.0
  F  F36  1  0.30190000  0.54676000  0.70538000  1.0
  F  F37  1  0.85794000  0.85813000  0.62476000  1.0
  F  F38  1  0.79107000  0.83254000  0.65611000  1.0
  F  F39  1  0.86319000  0.79710000  0.65413000  1.0
  F  F40  1  0.88821000  0.95006000  0.81394000  1.0
  F  F41  1  0.95136000  0.90447000  0.81932000  1.0
  F  F42  1  0.87583000  0.89042000  0.84374000  1.0
  F  F43  1  0.40161000  0.33503000  0.13179000  1.0
  F  F44  1  0.32486000  0.31282000  0.14571000  1.0
  F  F45  1  0.39148000  0.28713000  0.17898000  1.0
  F  F46  1  0.34310000  0.48844000  0.25996000  1.0
  F  F47  1  0.37773000  0.45294000  0.31128000  1.0
  F  F48  1  0.29575000  0.44902000  0.29916000  1.0
  F  F49  1  0.14674000  0.15606000  0.11474000  1.0
  F  F50  1  0.15848000  0.17892000  0.17741000  1.0
  F  F51  1  0.22048000  0.18277000  0.13124000  1.0
  F  F52  1  0.04427000  0.34987000  0.09585000  1.0
  F  F53  1  0.11060000  0.35926000  0.05430000  1.0
  F  F54  1  0.11456000  0.37723000  0.11914000  1.0
  F  F55  1  0.72937000  0.71648000  0.56150000  1.0
  F  F56  1  0.72865000  0.69114000  0.62409000  1.0
  F  F57  1  0.76937000  0.74961000  0.61029000  1.0
  F  F58  1  0.50443000  0.79896000  0.62878000  1.0
  F  F59  1  0.54482000  0.85611000  0.61073000  1.0
  F  F60  1  0.54459000  0.83560000  0.67514000  1.0
  F  F61  1  0.13154000  0.61795000  0.85955000  1.0
  F  F62  1  0.20145000  0.64325000  0.83286000  1.0
  F  F63  1  0.12672000  0.65777000  0.80481000  1.0
  F  F64  1  0.14010000  0.77945000  0.98829000  1.0
  F  F65  1  0.10046000  0.81793000  0.94158000  1.0
  F  F66  1  0.18382000  0.81565000  0.94380000  1.0
  F  F67  1  0.72418000  0.17042000  0.40892000  1.0
  F  F68  1  0.76515000  0.21836000  0.37431000  1.0
  F  F69  1  0.72372000  0.16924000  0.34121000  1.0
  F  F70  1  0.54443000  0.32726000  0.39606000  1.0
  F  F71  1  0.50094000  0.27280000  0.37481000  1.0
  F  F72  1  0.53784000  0.31368000  0.33012000  1.0
  F  F73  1  0.21907000  0.94096000  0.21477000  1.0
  F  F74  1  0.22109000  0.87607000  0.19601000  1.0
  F  F75  1  0.26151000  0.89645000  0.25210000  1.0
  F  F76  1  0.00995000  0.88695000  0.33100000  1.0
  F  F77  1  0.06432000  0.91487000  0.37499000  1.0
  F  F78  1  0.06080000  0.84770000  0.36745000  1.0
  F  F79  1  0.63065000  0.33733000  0.86902000  1.0
  F  F80  1  0.70142000  0.31138000  0.84421000  1.0
  F  F81  1  0.62703000  0.28528000  0.82570000  1.0
  F  F82  1  0.65043000  0.47792000  0.71907000  1.0
  F  F83  1  0.61048000  0.43502000  0.67695000  1.0
  F  F84  1  0.69394000  0.43538000  0.68007000  1.0
  F  F85  1  0.23984000  0.05329000  0.77396000  1.0
  F  F86  1  0.23820000  0.11523000  0.80116000  1.0
  F  F87  1  0.27570000  0.10430000  0.74072000  1.0
  F  F88  1  0.00774000  0.12161000  0.71474000  1.0
  F  F89  1  0.03546000  0.10274000  0.65301000  1.0
  F  F90  1  0.04032000  0.16750000  0.67255000  1.0
  F  F91  1  0.73881000  0.56903000  0.21185000  1.0
  F  F92  1  0.75243000  0.61231000  0.26269000  1.0
  F  F93  1  0.75543000  0.63383000  0.19787000  1.0
  F  F94  1  0.49496000  0.62891000  0.26098000  1.0
  F  F95  1  0.49489000  0.63036000  0.19286000  1.0
  F  F96  1  0.50782000  0.68728000  0.22805000  1.0
  F  F97  1  0.24971000  0.28793000  0.93137000  1.0
  F  F98  1  0.26325000  0.30123000  0.86598000  1.0
  F  F99  1  0.26813000  0.23697000  0.88915000  1.0
  F  F100  1  0.00426000  0.28767000  0.86911000  1.0
  F  F101  1  0.01094000  0.21994000  0.87759000  1.0
  F  F102  1  0.02136000  0.24750000  0.81638000  1.0
  F  F103  1  0.64531000  0.66154000  0.38654000  1.0
  F  F104  1  0.71987000  0.68624000  0.36922000  1.0
  F  F105  1  0.65753000  0.68345000  0.32353000  1.0
  F  F106  1  0.63271000  0.88387000  0.38861000  1.0
  F  F107  1  0.61970000  0.86096000  0.45119000  1.0
  F  F108  1  0.55671000  0.86232000  0.40586000  1.0
  F  F109  1  0.12724000  0.84406000  0.12605000  1.0
  F  F110  1  0.20400000  0.82161000  0.14048000  1.0
  F  F111  1  0.14354000  0.82192000  0.18840000  1.0
  F  F112  1  0.12158000  0.64388000  0.05928000  1.0
  F  F113  1  0.05707000  0.63895000  0.10321000  1.0
  F  F114  1  0.13413000  0.62168000  0.12211000  1.0
  F  F115  1  0.73446000  0.17966000  0.56266000  1.0
  F  F116  1  0.74104000  0.17145000  0.62962000  1.0
  F  F117  1  0.77067000  0.22810000  0.59974000  1.0
  F  F118  1  0.50232000  0.25570000  0.61764000  1.0
  F  F119  1  0.53679000  0.31582000  0.60122000  1.0
  F  F120  1  0.53626000  0.29458000  0.66539000  1.0
  F  F121  1  0.12995000  0.86841000  0.84739000  1.0
  F  F122  1  0.20674000  0.84751000  0.83086000  1.0
  F  F123  1  0.14032000  0.80673000  0.82080000  1.0
  F  F124  1  0.13466000  0.94264000  0.64875000  1.0
  F  F125  1  0.07433000  0.89519000  0.64184000  1.0
  F  F126  1  0.15361000  0.88064000  0.62665000  1.0
  F  F127  1  0.68823000  0.41955000  0.32264000  1.0
  F  F128  1  0.75055000  0.39327000  0.28609000  1.0
  F  F129  1  0.69380000  0.35238000  0.31602000  1.0
  F  F130  1  0.58198000  0.42865000  0.12913000  1.0
  F  F131  1  0.52335000  0.39346000  0.16347000  1.0
  F  F132  1  0.58128000  0.36095000  0.12714000  1.0
  F  F133  1  0.08096000  0.18195000  0.36533000  1.0
  F  F134  1  0.09265000  0.22488000  0.31384000  1.0
  F  F135  1  0.15773000  0.20464000  0.35246000  1.0
  F  F136  1  0.12298000  0.04581000  0.20111000  1.0
  F  F137  1  0.15226000  0.01722000  0.25842000  1.0
  F  F138  1  0.20327000  0.05253000  0.21839000  1.0
  F  F139  1  0.56197000  0.67295000  0.69098000  1.0
  F  F140  1  0.64340000  0.68401000  0.68120000  1.0
  F  F141  1  0.60139000  0.71829000  0.72955000  1.0
  F  F142  1  0.66144000  0.51456000  0.80279000  1.0
  F  F143  1  0.63137000  0.55019000  0.85576000  1.0
  F  F144  1  0.71119000  0.55676000  0.83680000  1.0
  F  F145  1  0.89643000  0.62369000  0.83946000  1.0
  F  F146  1  0.89309000  0.66799000  0.78825000  1.0
  F  F147  1  0.82222000  0.64209000  0.81484000  1.0
  F  F148  1  0.89102000  0.81463000  0.94079000  1.0
  F  F149  1  0.85330000  0.76920000  0.98180000  1.0
  F  F150  1  0.80818000  0.80640000  0.93893000  1.0
  F  F151  1  0.30755000  0.33706000  0.40795000  1.0
  F  F152  1  0.24610000  0.29986000  0.38180000  1.0
  F  F153  1  0.30188000  0.33105000  0.34095000  1.0
  F  F154  1  0.41990000  0.14338000  0.41156000  1.0
  F  F155  1  0.47760000  0.18113000  0.37882000  1.0
  F  F156  1  0.42206000  0.14496000  0.34410000  1.0
  F  F157  1  0.90082000  0.37245000  0.15387000  1.0
  F  F158  1  0.89550000  0.32787000  0.20471000  1.0
  F  F159  1  0.82590000  0.35682000  0.17888000  1.0
  F  F160  1  0.88516000  0.18300000  0.05106000  1.0
  F  F161  1  0.85216000  0.23074000  0.00997000  1.0
  F  F162  1  0.80296000  0.19551000  0.05158000  1.0
  F  F163  1  0.41922000  0.66901000  0.66487000  1.0
  F  F164  1  0.33783000  0.67133000  0.67998000  1.0
  F  F165  1  0.39344000  0.70549000  0.71801000  1.0
  F  F166  1  0.34624000  0.82467000  0.53619000  1.0
  F  F167  1  0.39037000  0.86344000  0.57948000  1.0
  F  F168  1  0.30774000  0.85691000  0.58689000  1.0
  F  F169  1  0.91959000  0.16143000  0.62767000  1.0
  F  F170  1  0.90766000  0.20714000  0.67665000  1.0
  F  F171  1  0.84338000  0.18667000  0.63772000  1.0
  F  F172  1  0.88035000  0.04488000  0.80491000  1.0
  F  F173  1  0.85040000  0.00657000  0.75395000  1.0
  F  F174  1  0.79913000  0.04687000  0.78912000  1.0
  F  F175  1  0.33473000  0.63642000  0.12843000  1.0
  F  F176  1  0.34341000  0.69740000  0.15729000  1.0
  F  F177  1  0.26988000  0.66448000  0.16075000  1.0
  F  F178  1  0.43210000  0.59209000  0.32227000  1.0
  F  F179  1  0.37320000  0.54361000  0.31562000  1.0
  F  F180  1  0.35530000  0.60171000  0.34660000  1.0
  F  F181  1  0.96181000  0.80905000  0.23925000  1.0
  F  F182  1  0.88763000  0.78801000  0.21724000  1.0
  F  F183  1  0.91073000  0.77681000  0.28189000  1.0
  F  F184  1  0.83365000  0.98864000  0.26553000  1.0
  F  F185  1  0.84239000  0.97390000  0.33163000  1.0
  F  F186  1  0.77163000  0.95825000  0.29936000  1.0
  F  F187  1  0.32097000  0.40437000  0.67142000  1.0
  F  F188  1  0.25843000  0.37773000  0.70723000  1.0
  F  F189  1  0.31493000  0.33713000  0.67619000  1.0
  F  F190  1  0.42830000  0.40367000  0.86585000  1.0
  F  F191  1  0.48775000  0.37409000  0.82714000  1.0
  F  F192  1  0.43343000  0.33616000  0.86160000  1.0
