# generated using pymatgen
data_H12C14N5O2
_symmetry_space_group_name_H-M   'P 1'
_cell_length_a   22.60650000
_cell_length_b   61.45100000
_cell_length_c   61.45100000
_cell_angle_alpha   90.00000000
_cell_angle_beta   90.00000000
_cell_angle_gamma   90.00000000
_symmetry_Int_Tables_number   1
_chemical_formula_structural   H12C14N5O2
_chemical_formula_sum   'H384 C448 N160 O64'
_cell_volume   85367.23952771
_cell_formula_units_Z   32
loop_
 _symmetry_equiv_pos_site_id
 _symmetry_equiv_pos_as_xyz
  1  'x, y, z'
loop_
 _atom_site_type_symbol
 _atom_site_label
 _atom_site_symmetry_multiplicity
 _atom_site_fract_x
 _atom_site_fract_y
 _atom_site_fract_z
 _atom_site_occupancy
  C  1  1  0.28291000  0.08673800  0.99372000  1
  C  2  1  0.32224700  0.06885800  0.99353100  1
  C  3  1  0.37826600  0.06935300  0.98320400  1
  C  4  1  0.39487300  0.08896400  0.97216900  1
  C  5  1  0.35565400  0.10720000  0.97231700  1
  C  6  1  0.29970100  0.10631500  0.98293900  1
  C  9  1  0.22991100  0.08469500  0.00605900  1
  C  10  1  0.18598600  0.06847400  0.00200100  1
  C  11  1  0.13540300  0.06693800  0.01603300  1
  C  12  1  0.12739600  0.08240100  0.03326400  1
  C  13  1  0.17064600  0.09889100  0.03659100  1
  C  14  1  0.22124200  0.09949200  0.02331200  1
  C  35  1  0.78289000  0.41462000  0.00760200  1
  C  36  1  0.82219200  0.43251200  0.00781200  1
  C  37  1  0.87826900  0.43198500  0.01809700  1
  C  38  1  0.89489200  0.41236400  0.02911300  1
  C  39  1  0.85565600  0.39413300  0.02896700  1
  C  40  1  0.79970600  0.39502700  0.01834500  1
  C  43  1  0.72988700  0.41667600  0.99526700  1
  C  44  1  0.68591800  0.43286800  0.99937300  1
  C  45  1  0.63528800  0.43440100  0.98536300  1
  C  46  1  0.62728400  0.41897100  0.96810400  1
  C  47  1  0.67063400  0.40252900  0.96471300  1
  C  48  1  0.72123600  0.40191000  0.97798700  1
  C  69  1  0.53288600  0.25761800  0.83621200  1
  C  70  1  0.57218000  0.25778700  0.81831700  1
  C  71  1  0.62833200  0.26802600  0.81883400  1
  C  72  1  0.64500000  0.27905100  0.83844300  1
  C  73  1  0.60578200  0.27894200  0.85667700  1
  C  74  1  0.54976400  0.26837000  0.85579500  1
  C  77  1  0.47980800  0.24531900  0.83417600  1
  C  78  1  0.43582200  0.24943600  0.81799100  1
  C  79  1  0.38510200  0.23546100  0.81648900  1
  C  80  1  0.37703100  0.21824000  0.83196000  1
  C  81  1  0.42035700  0.21485600  0.84841200  1
  C  82  1  0.47109000  0.22806600  0.84896900  1
  C  103  1  0.03288900  0.24377100  0.16511800  1
  C  104  1  0.07218100  0.24359400  0.18301600  1
  C  105  1  0.12830800  0.23334500  0.18250600  1
  C  106  1  0.14496700  0.22231000  0.16290000  1
  C  107  1  0.10575600  0.22242400  0.14466500  1
  C  108  1  0.04975100  0.23300800  0.14553800  1
  C  111  1  0.97979800  0.25606200  0.16714900  1
  C  112  1  0.93583200  0.25196600  0.18334900  1
  C  113  1  0.88512600  0.26594300  0.18484500  1
  C  114  1  0.87702600  0.28314600  0.16935400  1
  C  115  1  0.92032800  0.28651400  0.15288900  1
  C  116  1  0.97106800  0.27330700  0.15234800  1
  C  137  1  0.71910700  0.91454900  0.00722800  1
  C  138  1  0.67781400  0.93179900  0.00633500  1
  C  139  1  0.62001400  0.93016700  0.01507300  1
  C  140  1  0.60401600  0.91052200  0.02608500  1
  C  141  1  0.64580500  0.89316300  0.02749800  1
  C  142  1  0.70313600  0.89487700  0.01803300  1
  C  145  1  0.77309200  0.91695900  0.99557600  1
  C  146  1  0.81648400  0.93315300  0.00042400  1
  C  147  1  0.86998000  0.93391300  0.98787600  1
  C  148  1  0.88027800  0.91838200  0.97091000  1
  C  149  1  0.83650200  0.90240500  0.96633000  1
  C  150  1  0.78392000  0.90208400  0.97854000  1
  C  171  1  0.21915800  0.58678600  0.99412200  1
  C  172  1  0.17791700  0.56951700  0.99499200  1
  C  173  1  0.12005400  0.57118300  0.98631000  1
  C  174  1  0.10402600  0.59083600  0.97532100  1
  C  175  1  0.14581700  0.60819300  0.97390100  1
  C  176  1  0.20315400  0.60647500  0.98335500  1
  C  179  1  0.27315500  0.58436400  0.00576300  1
  C  180  1  0.31656500  0.56819100  0.00087700  1
  C  181  1  0.37008300  0.56742200  0.01341300  1
  C  182  1  0.38038500  0.58292100  0.03040900  1
  C  183  1  0.33654900  0.59886400  0.03504200  1
  C  184  1  0.28397200  0.59920600  0.02283100  1
  C  205  1  0.46983000  0.74347000  0.16453100  1
  C  206  1  0.43051800  0.74327000  0.18242300  1
  C  207  1  0.37450600  0.73293300  0.18192400  1
  C  208  1  0.35800100  0.72182500  0.16234200  1
  C  209  1  0.39719500  0.72198000  0.14410200  1
  C  210  1  0.45306800  0.73266100  0.14496500  1
  C  213  1  0.52276600  0.75585400  0.16656500  1
  C  214  1  0.56672000  0.75184100  0.18278900  1
  C  215  1  0.61723800  0.76591200  0.18431600  1
  C  216  1  0.62515600  0.78313200  0.16883400  1
  C  217  1  0.58191600  0.78639800  0.15232700  1
  C  218  1  0.53136900  0.77309400  0.15174500  1
  C  239  1  0.96982200  0.75782800  0.83681900  1
  C  240  1  0.93051500  0.75803300  0.81892500  1
  C  241  1  0.87452600  0.76838200  0.81941700  1
  C  242  1  0.85802700  0.77949900  0.83899500  1
  C  243  1  0.89721500  0.77933900  0.85723700  1
  C  244  1  0.95308400  0.76865100  0.85637900  1
  C  247  1  0.02277700  0.74545000  0.83478800  1
  C  248  1  0.06670600  0.74944500  0.81854900  1
  C  249  1  0.11721400  0.73537200  0.81702900  1
  C  250  1  0.12515800  0.71817000  0.83253100  1
  C  251  1  0.08194600  0.71491900  0.84905200  1
  C  252  1  0.03139300  0.72822200  0.84961800  1
  C  273  1  0.78285000  0.58675700  0.49347900  1
  C  274  1  0.82219200  0.56887400  0.49331600  1
  C  275  1  0.87813600  0.56931800  0.48292800  1
  C  276  1  0.89463200  0.58888200  0.47178000  1
  C  277  1  0.85547400  0.60713900  0.47192400  1
  C  278  1  0.79961400  0.60629900  0.48262300  1
  C  281  1  0.72991400  0.58474800  0.50587300  1
  C  282  1  0.68599000  0.56850000  0.50190900  1
  C  283  1  0.63551200  0.56697300  0.51599800  1
  C  284  1  0.62760200  0.58249000  0.53319000  1
  C  285  1  0.67077200  0.59903300  0.53640600  1
  C  286  1  0.72127600  0.59960900  0.52307500  1
  C  307  1  0.28283300  0.91460100  0.50784500  1
  C  308  1  0.32213700  0.93249700  0.50802900  1
  C  309  1  0.37814300  0.93201800  0.51837400  1
  C  310  1  0.39465500  0.91244500  0.52950100  1
  C  311  1  0.35548200  0.89419300  0.52936000  1
  C  312  1  0.29962100  0.89504400  0.51866300  1
  C  315  1  0.22989000  0.91662200  0.49545600  1
  C  316  1  0.18592400  0.93284300  0.49946400  1
  C  317  1  0.13539900  0.93436500  0.48539600  1
  C  318  1  0.12749300  0.91888100  0.46817600  1
  C  319  1  0.17076000  0.90238200  0.46490200  1
  C  320  1  0.22127100  0.90179000  0.47822600  1
  C  341  1  0.03351100  0.75723500  0.33670400  1
  C  342  1  0.07472100  0.75635000  0.31942200  1
  C  343  1  0.13257100  0.76505300  0.32105400  1
  C  344  1  0.14859000  0.77609600  0.34067800  1
  C  345  1  0.10684000  0.77753800  0.35804400  1
  C  346  1  0.04952900  0.76805400  0.35636500  1
  C  349  1  0.97950400  0.74558900  0.33431200  1
  C  350  1  0.93606200  0.75045600  0.31813800  1
  C  351  1  0.88255600  0.73790900  0.31738000  1
  C  352  1  0.87230600  0.72092400  0.33289800  1
  C  353  1  0.91613400  0.71631800  0.34885200  1
  C  354  1  0.96871600  0.72853100  0.34916900  1
  C  375  1  0.53352400  0.74415700  0.66463000  1
  C  376  1  0.57474200  0.74504700  0.68190700  1
  C  377  1  0.63256600  0.73632900  0.68028600  1
  C  378  1  0.64857400  0.72526800  0.66067200  1
  C  379  1  0.60682500  0.72382500  0.64330400  1
  C  380  1  0.54951800  0.73331600  0.64497700  1
  C  383  1  0.47949400  0.75579400  0.66701600  1
  C  384  1  0.43607800  0.75094700  0.68320400  1
  C  385  1  0.38257100  0.76348900  0.68395100  1
  C  386  1  0.37228900  0.78045100  0.66840900  1
  C  387  1  0.41608900  0.78504000  0.65243800  1
  C  388  1  0.46868400  0.77283300  0.65214000  1
  C  409  1  0.21914800  0.41455300  0.50748400  1
  C  410  1  0.17787200  0.43181000  0.50658500  1
  C  411  1  0.12013300  0.43022700  0.51539200  1
  C  412  1  0.10421800  0.41062300  0.52650000  1
  C  413  1  0.14594500  0.39324200  0.52790500  1
  C  414  1  0.20319300  0.39491100  0.51835300  1
  C  417  1  0.27305900  0.41692700  0.49576500  1
  C  418  1  0.31647500  0.43314800  0.50050700  1
  C  419  1  0.36985500  0.43390000  0.48788600  1
  C  420  1  0.38001900  0.41831500  0.47095200  1
  C  421  1  0.33629100  0.40228300  0.46650000  1
  C  422  1  0.28381700  0.40198800  0.47877500  1
  C  443  1  0.71920400  0.08678200  0.49386600  1
  C  444  1  0.67797200  0.06950600  0.49474200  1
  C  445  1  0.62017000  0.07112300  0.48599300  1
  C  446  1  0.60422400  0.09073500  0.47490800  1
  C  447  1  0.64595600  0.10811600  0.47349700  1
  C  448  1  0.70320900  0.10644000  0.48303700  1
  C  451  1  0.77312600  0.08440000  0.50557500  1
  C  452  1  0.81656200  0.06819600  0.50079700  1
  C  453  1  0.86996200  0.06743700  0.51340500  1
  C  454  1  0.88013200  0.08299300  0.53036500  1
  C  455  1  0.83634300  0.09898900  0.53487100  1
  C  456  1  0.78387200  0.09930600  0.52259500  1
  C  477  1  0.96917200  0.24384100  0.66402800  1
  C  478  1  0.92795000  0.24469600  0.68130700  1
  C  479  1  0.87019600  0.23590700  0.67969100  1
  C  480  1  0.85429600  0.22479800  0.66009100  1
  C  481  1  0.89604200  0.22339200  0.64272000  1
  C  482  1  0.95324300  0.23297700  0.64438100  1
  C  485  1  0.02306100  0.25556600  0.66641500  1
  C  486  1  0.06647200  0.25080100  0.68263100  1
  C  487  1  0.11981300  0.26344200  0.68341400  1
  C  488  1  0.12992200  0.28042800  0.66788500  1
  C  489  1  0.08615600  0.28492000  0.65187800  1
  C  490  1  0.03373900  0.27261200  0.65153300  1
  C  511  1  0.46915900  0.25745000  0.33732100  1
  C  512  1  0.42793100  0.25659100  0.32004300  1
  C  513  1  0.37019800  0.26539300  0.32165000  1
  C  514  1  0.35431000  0.27652100  0.34123900  1
  C  515  1  0.39605700  0.27792700  0.35861100  1
  C  516  1  0.45325000  0.26833400  0.35696100  1
  C  519  1  0.52307000  0.24573700  0.33493800  1
  C  520  1  0.56645600  0.25048100  0.31870400  1
  C  521  1  0.61979400  0.23784300  0.31793300  1
  C  522  1  0.62994200  0.22088200  0.33348500  1
  C  523  1  0.58620800  0.21640600  0.34951100  1
  C  524  1  0.53377600  0.22870900  0.34983800  1
  C  545  1  0.00028700  0.02134800  0.99780900  1
  C  546  1  0.95375600  0.00697500  0.99313200  1
  C  547  1  0.95754800  0.98460700  0.99818800  1
  C  548  1  0.00950900  0.97769900  0.00905200  1
  C  549  1  0.05604500  0.99209200  0.01490500  1
  C  550  1  0.05276300  0.01447900  0.00849700  1
  C  557  1  0.09970700  0.02973500  0.01139400  1
  C  558  1  0.91026000  0.97022300  0.99299200  1
  C  561  1  0.50028000  0.48000500  0.00364200  1
  C  562  1  0.45382000  0.49440700  0.00832700  1
  C  563  1  0.45759000  0.51675300  0.00317000  1
  C  564  1  0.50945000  0.52360700  0.99220500  1
  C  565  1  0.55590200  0.50917900  0.98634600  1
  C  566  1  0.55265500  0.48682000  0.99285200  1
  C  573  1  0.59955000  0.47154300  0.98995100  1
  C  574  1  0.41036800  0.53116900  0.00836000  1
  C  577  1  0.24997600  0.25369000  0.77088000  1
  C  578  1  0.20349800  0.25836500  0.75647900  1
  C  579  1  0.20732300  0.25326500  0.73411900  1
  C  580  1  0.25926200  0.24235900  0.72725400  1
  C  581  1  0.30571700  0.23649600  0.74168200  1
  C  582  1  0.30242700  0.24295400  0.76405500  1
  C  589  1  0.34934500  0.24006300  0.77932900  1
  C  590  1  0.16007900  0.25843300  0.71970300  1
  C  593  1  0.74997400  0.24769200  0.23045200  1
  C  594  1  0.70348800  0.24300300  0.24484700  1
  C  595  1  0.70731800  0.24807200  0.26721300  1
  C  596  1  0.75926400  0.25896600  0.27409300  1
  C  597  1  0.80572400  0.26484200  0.25967300  1
  C  598  1  0.80243000  0.25841200  0.23729100  1
  C  605  1  0.84935200  0.26131900  0.22202200  1
  C  606  1  0.66007100  0.24288400  0.28162100  1
  C  609  1  0.00512500  0.48059200  0.99980200  1
  C  610  1  0.04987100  0.49559100  0.99470100  1
  C  611  1  0.04267300  0.51811000  0.99847300  1
  C  612  1  0.98934800  0.52450100  0.00875000  1
  C  613  1  0.94463000  0.50953400  0.01509800  1
  C  614  1  0.95118600  0.48693600  0.00982100  1
  C  621  1  0.90606400  0.47095500  0.01304300  1
  C  622  1  0.08787700  0.53318400  0.99261600  1
  C  625  1  0.50512800  0.02075500  0.00150900  1
  C  626  1  0.54987700  0.00576000  0.00662000  1
  C  627  1  0.54264900  0.98323600  0.00289000  1
  C  628  1  0.48928800  0.97683600  0.99264400  1
  C  629  1  0.44457100  0.99179600  0.98628600  1
  C  630  1  0.45115800  0.01440200  0.99152100  1
  C  637  1  0.40603800  0.03038200  0.98829300  1
  C  638  1  0.58786000  0.96816400  0.00876000  1
  C  641  1  0.75527400  0.24965200  0.77025900  1
  C  642  1  0.80003000  0.24451700  0.75527300  1
  C  643  1  0.79279800  0.24819400  0.73273900  1
  C  644  1  0.73942400  0.25842000  0.72632000  1
  C  645  1  0.69471800  0.26481600  0.74127100  1
  C  646  1  0.70129400  0.25962300  0.76388900  1
  C  653  1  0.65615600  0.26288400  0.77986200  1
  C  654  1  0.83801600  0.24230200  0.71768200  1
  C  657  1  0.25528000  0.25166900  0.23108200  1
  C  658  1  0.30004600  0.25678800  0.24606700  1
  C  659  1  0.29279500  0.25312000  0.26860100  1
  C  660  1  0.23938300  0.24292300  0.27502200  1
  C  661  1  0.19466000  0.23654300  0.26007200  1
  C  662  1  0.20126300  0.24172300  0.23745200  1
  C  669  1  0.15612200  0.23846300  0.22148400  1
  C  670  1  0.33802700  0.25899800  0.28365800  1
  C  673  1  0.75234300  0.74775800  0.22993900  1
  C  674  1  0.79881800  0.74307800  0.24433900  1
  C  675  1  0.79498800  0.74815800  0.26670300  1
  C  676  1  0.74301200  0.75903700  0.27357600  1
  C  677  1  0.69652000  0.76488500  0.25915600  1
  C  678  1  0.69985600  0.75846100  0.23677400  1
  C  685  1  0.65294400  0.76134400  0.22149700  1
  C  686  1  0.84224400  0.74298000  0.28111200  1
  C  689  1  0.25234300  0.75354600  0.77140800  1
  C  690  1  0.29882900  0.75823800  0.75701400  1
  C  691  1  0.29499100  0.75318800  0.73464300  1
  C  692  1  0.24300900  0.74232300  0.72775700  1
  C  693  1  0.19651400  0.73646100  0.74216800  1
  C  694  1  0.19985000  0.74285800  0.76455800  1
  C  701  1  0.15293400  0.73996000  0.77983200  1
  C  702  1  0.34225000  0.75838600  0.72024200  1
  C  705  1  0.24747800  0.75128600  0.23047500  1
  C  706  1  0.20272400  0.75642300  0.24546200  1
  C  707  1  0.20996600  0.75275900  0.26799700  1
  C  708  1  0.26336300  0.74255100  0.27441800  1
  C  709  1  0.30809600  0.73617300  0.25947200  1
  C  710  1  0.30149300  0.74134500  0.23685200  1
  C  717  1  0.34663900  0.73809800  0.22088200  1
  C  718  1  0.16474300  0.75865800  0.28305500  1
  C  721  1  0.74747000  0.75007800  0.77086600  1
  C  722  1  0.70270400  0.74495600  0.75588000  1
  C  723  1  0.70996800  0.74860900  0.73334200  1
  C  724  1  0.76340000  0.75879100  0.72691900  1
  C  725  1  0.80815200  0.76515400  0.74186500  1
  C  726  1  0.80152200  0.75999400  0.76448700  1
  C  733  1  0.84667200  0.76324000  0.78045400  1
  C  734  1  0.66472800  0.74272600  0.71828600  1
  C  737  1  0.50020400  0.52137600  0.49789200  1
  C  738  1  0.45366600  0.50700200  0.49321100  1
  C  739  1  0.45754000  0.48461200  0.49816900  1
  C  740  1  0.50962300  0.47768300  0.50894000  1
  C  741  1  0.55617600  0.49207300  0.51480000  1
  C  742  1  0.55279600  0.51448600  0.50848800  1
  C  749  1  0.59975600  0.52974700  0.51137900  1
  C  750  1  0.41021800  0.47023100  0.49298400  1
  C  753  1  0.00019800  0.97997700  0.50355500  1
  C  754  1  0.95373200  0.99438000  0.50824500  1
  C  755  1  0.95758400  0.01674900  0.50318900  1
  C  756  1  0.00957100  0.02362400  0.49231700  1
  C  757  1  0.05604100  0.00920200  0.48645400  1
  C  758  1  0.05269700  0.98681500  0.49286100  1
  C  765  1  0.09960800  0.97153600  0.48996600  1
  C  766  1  0.91032600  0.03115900  0.50836900  1
  C  769  1  0.50526200  0.98055500  0.49997500  1
  C  770  1  0.54999600  0.99554100  0.49480500  1
  C  771  1  0.54268800  0.01808800  0.49838100  1
  C  772  1  0.48923000  0.02452600  0.50853300  1
  C  773  1  0.44451800  0.00958300  0.51494800  1
  C  774  1  0.45118400  0.98694300  0.50986400  1
  C  781  1  0.40605100  0.97097100  0.51313900  1
  C  782  1  0.58791900  0.03314200  0.49247500  1
  C  785  1  0.00526700  0.52079500  0.50133600  1
  C  786  1  0.05000200  0.50581200  0.50651500  1
  C  787  1  0.04266800  0.48325600  0.50298400  1
  C  788  1  0.98917000  0.47680900  0.49286400  1
  C  789  1  0.94445600  0.49174800  0.48643800  1
  C  790  1  0.95115800  0.51439500  0.49147900  1
  C  797  1  0.90602600  0.53036700  0.48819700  1
  C  798  1  0.08790300  0.46820900  0.50890400  1
  C  801  1  0.36340100  0.16581500  0.93229000  1
  C  802  1  0.37740800  0.18364500  0.91895000  1
  C  803  1  0.40470500  0.18070800  0.89844900  1
  C  804  1  0.41969800  0.15917300  0.89235800  1
  C  805  1  0.40590900  0.14088400  0.90545700  1
  C  806  1  0.37627300  0.14433300  0.92561800  1
  C  813  1  0.35614000  0.12688700  0.93878800  1
  C  814  1  0.41559600  0.19896000  0.88451100  1
  C  817  1  0.86356100  0.33552900  0.06898200  1
  C  818  1  0.87757400  0.31770300  0.08232700  1
  C  819  1  0.90480200  0.32064900  0.10283800  1
  C  820  1  0.91972600  0.34219000  0.10893500  1
  C  821  1  0.90591600  0.36047400  0.09583300  1
  C  822  1  0.87635400  0.35701400  0.07565900  1
  C  829  1  0.85620400  0.37445600  0.06248900  1
  C  830  1  0.91569400  0.30240200  0.11678400  1
  C  833  1  0.61332400  0.31886400  0.91536800  1
  C  834  1  0.62727000  0.33213300  0.93325800  1
  C  835  1  0.65482000  0.35260100  0.93042200  1
  C  836  1  0.67010800  0.35873400  0.90892700  1
  C  837  1  0.65639500  0.34570600  0.89058100  1
  C  838  1  0.62651400  0.32557500  0.89392500  1
  C  845  1  0.60649800  0.31247800  0.87640700  1
  C  846  1  0.66567100  0.36647200  0.94872800  1
  C  849  1  0.11306800  0.18248200  0.08596900  1
  C  850  1  0.12701900  0.16922900  0.06806600  1
  C  851  1  0.15482300  0.14880600  0.07087900  1
  C  852  1  0.17037100  0.14270300  0.09235600  1
  C  853  1  0.15666600  0.15571400  0.11071500  1
  C  854  1  0.12651600  0.17579500  0.10739900  1
  C  861  1  0.10651300  0.18886900  0.12493600  1
  C  862  1  0.16566000  0.13494000  0.05256800  1
  C  865  1  0.63871600  0.83523700  0.06828500  1
  C  866  1  0.62539000  0.81743000  0.08174900  1
  C  867  1  0.59759800  0.82035600  0.10215800  1
  C  868  1  0.58152200  0.84183900  0.10804600  1
  C  869  1  0.59451400  0.86010300  0.09479500  1
  C  870  1  0.62457800  0.85669200  0.07470800  1
  C  877  1  0.64395200  0.87416800  0.06139700  1
  C  878  1  0.58712200  0.80213500  0.11618000  1
  C  881  1  0.13854400  0.66609900  0.93312000  1
  C  882  1  0.12522400  0.68390400  0.91965100  1
  C  883  1  0.09749400  0.68097100  0.89923100  1
  C  884  1  0.08147500  0.65948400  0.89333700  1
  C  885  1  0.09446500  0.64122300  0.90659000  1
  C  886  1  0.12446400  0.64464200  0.92668900  1
  C  893  1  0.14382200  0.62716600  0.94000200  1
  C  894  1  0.08702800  0.69918900  0.88520400  1
  C  897  1  0.38956500  0.68254000  0.08520500  1
  C  898  1  0.37610800  0.66935600  0.06719900  1
  C  899  1  0.35073100  0.64850500  0.06991600  1
  C  900  1  0.33702600  0.64184800  0.09139200  1
  C  901  1  0.35006200  0.65482700  0.10984100  1
  C  902  1  0.37784600  0.67538800  0.10662900  1
  C  909  1  0.39730500  0.68850600  0.12423500  1
  C  910  1  0.33994200  0.63480300  0.05150200  1
  C  913  1  0.88977000  0.81879200  0.91614400  1
  C  914  1  0.87629200  0.83195800  0.93416000  1
  C  915  1  0.85067600  0.85277200  0.93146200  1
  C  916  1  0.83674600  0.85940600  0.90999900  1
  C  917  1  0.84979500  0.84644300  0.89153900  1
  C  918  1  0.87783200  0.82592400  0.89473000  1
  C  925  1  0.89729400  0.81283100  0.87710800  1
  C  926  1  0.83987800  0.86646900  0.94987800  1
  C  929  1  0.86358300  0.66609900  0.43257000  1
  C  930  1  0.87706200  0.68410200  0.41938100  1
  C  931  1  0.90215800  0.68138000  0.39848300  1
  C  932  1  0.91557200  0.65989000  0.39178700  1
  C  933  1  0.90249200  0.64144200  0.40476800  1
  C  934  1  0.87498700  0.64466400  0.42537900  1
  C  941  1  0.85540000  0.62707000  0.43849500  1
  C  942  1  0.91294800  0.69980400  0.38478300  1
  C  945  1  0.36374900  0.83524400  0.56869800  1
  C  946  1  0.37722700  0.81724400  0.58188900  1
  C  947  1  0.40225100  0.81997000  0.60279900  1
  C  948  1  0.41559600  0.84146300  0.60950300  1
  C  949  1  0.40250800  0.85990900  0.59652000  1
  C  950  1  0.37507800  0.85668000  0.57589800  1
  C  957  1  0.35549400  0.87427500  0.56278100  1
  C  958  1  0.41303200  0.80155000  0.61650500  1
  C  961  1  0.11382100  0.81836400  0.41597300  1
  C  962  1  0.12708200  0.83182000  0.43379700  1
  C  963  1  0.15490600  0.85222800  0.43090400  1
  C  964  1  0.17106100  0.85812400  0.40943000  1
  C  965  1  0.15815700  0.84488100  0.39115200  1
  C  966  1  0.12806300  0.82479200  0.39452900  1
  C  973  1  0.10880000  0.81148500  0.37702700  1
  C  974  1  0.16536400  0.86623400  0.44914100  1
  C  977  1  0.61358600  0.68297800  0.58537200  1
  C  978  1  0.62686000  0.66954000  0.56753600  1
  C  979  1  0.65492200  0.64917200  0.57040400  1
  C  980  1  0.67130600  0.64330400  0.59186100  1
  C  981  1  0.65839800  0.65653100  0.61015100  1
  C  982  1  0.62805600  0.67657300  0.60680200  1
  C  989  1  0.60880400  0.68985700  0.62432100  1
  C  990  1  0.66538400  0.63517200  0.55216200  1
  C  993  1  0.13858100  0.33491900  0.56799200  1
  C  994  1  0.12575500  0.31693900  0.58129700  1
  C  995  1  0.10015700  0.31966300  0.60211000  1
  C  996  1  0.08569100  0.34111700  0.60861500  1
  C  997  1  0.09799900  0.35954000  0.59549000  1
  C  998  1  0.12593700  0.35634100  0.57494900  1
  C  1005  1  0.14477700  0.37396300  0.56169600  1
  C  1006  1  0.08976300  0.30126900  0.61589200  1
  C  1009  1  0.63840900  0.16641900  0.43341800  1
  C  1010  1  0.62559800  0.18439700  0.42011000  1
  C  1011  1  0.60006800  0.18167100  0.39928700  1
  C  1012  1  0.58565000  0.16021500  0.39277400  1
  C  1013  1  0.59795400  0.14179300  0.40589900  1
  C  1014  1  0.62582000  0.14499500  0.42645200  1
  C  1021  1  0.64462800  0.12736900  0.43970600  1
  C  1022  1  0.58968800  0.20006200  0.38550000  1
  C  1025  1  0.88903600  0.18303800  0.58456600  1
  C  1026  1  0.87624300  0.16966700  0.56663200  1
  C  1027  1  0.85056400  0.14887800  0.56942400  1
  C  1028  1  0.83599000  0.14246300  0.59089500  1
  C  1029  1  0.84824200  0.15565700  0.60927200  1
  C  1030  1  0.87626600  0.17617300  0.60600600  1
  C  1037  1  0.89497600  0.18950000  0.62359100  1
  C  1038  1  0.84015000  0.13503400  0.55108100  1
  C  1041  1  0.38921400  0.31829400  0.41677400  1
  C  1042  1  0.37638700  0.33164900  0.43471800  1
  C  1043  1  0.35050500  0.35240700  0.43194200  1
  C  1044  1  0.33575800  0.35880400  0.41048300  1
  C  1045  1  0.34803200  0.34562500  0.39209800  1
  C  1046  1  0.37626800  0.32514500  0.39534200  1
  C  1053  1  0.39498700  0.31183900  0.37774500  1
  C  1054  1  0.34006900  0.36624400  0.45028500  1
  H  7  1  0.31185600  0.05586500  0.00317900  1
  H  16  1  0.25358900  0.11065700  0.02684100  1
  H  19  1  0.22084700  0.12258200  0.98644900  1
  H  20  1  0.27191200  0.13694900  0.97407600  1
  H  21  1  0.15541000  0.04793800  0.97817100  1
  H  22  1  0.21909600  0.05902300  0.97231100  1
  H  23  1  0.05306800  0.06907100  0.04736700  1
  H  24  1  0.07286400  0.09222500  0.05824300  1
  H  25  1  0.45795800  0.10335000  0.95273600  1
  H  26  1  0.46942200  0.07746200  0.95676000  1
  H  28  1  0.16241700  0.10603200  0.06817400  1
  H  30  1  0.05154700  0.05672600  0.01434500  1
  H  32  1  0.39776600  0.13547500  0.96664900  1
  H  34  1  0.45823300  0.05570200  0.98339400  1
  H  41  1  0.81185000  0.44549100  0.99814300  1
  H  50  1  0.75360200  0.39076200  0.97442900  1
  H  53  1  0.72089400  0.37872800  0.01477500  1
  H  54  1  0.77198600  0.36435500  0.02712300  1
  H  55  1  0.65530200  0.45334000  0.02321900  1
  H  56  1  0.71904500  0.44227700  0.02907700  1
  H  57  1  0.55284500  0.43229200  0.95408000  1
  H  58  1  0.57272000  0.40918600  0.94312200  1
  H  59  1  0.95800800  0.39796400  0.04852000  1
  H  60  1  0.96948200  0.42385300  0.04450700  1
  H  62  1  0.66221600  0.39539900  0.93314500  1
  H  64  1  0.55134600  0.44454400  0.98715200  1
  H  66  1  0.89792200  0.36591200  0.03461900  1
  H  68  1  0.95825500  0.44562000  0.01787600  1
  H  75  1  0.56178000  0.24811300  0.80534800  1
  H  84  1  0.50344800  0.22451000  0.86012100  1
  H  87  1  0.47092600  0.26490200  0.87208600  1
  H  88  1  0.52209300  0.27721600  0.88645400  1
  H  89  1  0.40520200  0.27330700  0.79755400  1
  H  90  1  0.46901600  0.27910700  0.80861100  1
  H  91  1  0.30242900  0.20425900  0.81870500  1
  H  92  1  0.32227400  0.19335100  0.84183800  1
  H  93  1  0.70835800  0.29834800  0.85287100  1
  H  94  1  0.71990400  0.29431100  0.82699800  1
  H  96  1  0.41167400  0.18330400  0.85564200  1
  H  98  1  0.30120400  0.23729300  0.80638000  1
  H  100  1  0.64738800  0.28448500  0.88508500  1
  H  102  1  0.70829800  0.26775800  0.80519600  1
  H  109  1  0.06172600  0.25326300  0.19598400  1
  H  118  1  0.00342300  0.27685500  0.14119200  1
  H  121  1  0.97088400  0.23643900  0.12926400  1
  H  122  1  0.02204100  0.22410200  0.11490900  1
  H  123  1  0.90538000  0.22810500  0.20387500  1
  H  124  1  0.96914600  0.22230900  0.19281500  1
  H  125  1  0.80245000  0.29715000  0.18260400  1
  H  126  1  0.82225000  0.30801800  0.15944800  1
  H  127  1  0.20826800  0.20300100  0.14847600  1
  H  128  1  0.21979900  0.20701000  0.17435700  1
  H  130  1  0.91162600  0.31806300  0.14564700  1
  H  132  1  0.80121200  0.26416800  0.19502700  1
  H  134  1  0.14691400  0.21694800  0.11616400  1
  H  136  1  0.20826300  0.23357000  0.19615800  1
  H  143  1  0.68813400  0.94502200  0.99694300  1
  H  152  1  0.75181400  0.89103900  0.97439200  1
  H  155  1  0.78420800  0.87984200  0.01622900  1
  H  156  1  0.73317400  0.86483200  0.02786300  1
  H  157  1  0.84169600  0.95496200  0.02402500  1
  H  158  1  0.77691200  0.94409800  0.02849700  1
  H  159  1  0.95893600  0.93079100  0.95945500  1
  H  160  1  0.93925600  0.90806300  0.94757400  1
  H  161  1  0.53946800  0.89562800  0.04442000  1
  H  162  1  0.52487600  0.92105500  0.03877500  1
  H  164  1  0.85028200  0.89547600  0.93493800  1
  H  166  1  0.95414100  0.94202200  0.99350600  1
  H  168  1  0.60516800  0.86462200  0.03331200  1
  H  170  1  0.53832700  0.94154300  0.01062800  1
  H  177  1  0.18819800  0.55631300  0.00441100  1
  H  186  1  0.25185500  0.61023900  0.02700300  1
  H  189  1  0.28418300  0.62154700  0.98521200  1
  H  190  1  0.23311300  0.63655900  0.97360800  1
  H  191  1  0.34179400  0.54642000  0.97726300  1
  H  192  1  0.27699900  0.55729100  0.97278400  1
  H  193  1  0.45909400  0.57050600  0.04180500  1
  H  194  1  0.43938200  0.59319400  0.05375700  1
  H  195  1  0.03941700  0.60574400  0.95702700  1
  H  196  1  0.02483400  0.58031400  0.96266200  1
  H  198  1  0.35047900  0.60578300  0.06641800  1
  H  200  1  0.45429000  0.55935600  0.00772200  1
  H  202  1  0.10505800  0.63669100  0.96811400  1
  H  204  1  0.03837400  0.55982000  0.99080500  1
  H  211  1  0.44078500  0.75298800  0.19537500  1
  H  220  1  0.49905600  0.77656600  0.14055100  1
  H  223  1  0.53183800  0.73625800  0.12865800  1
  H  224  1  0.48081000  0.72384800  0.11430700  1
  H  225  1  0.59756200  0.72803800  0.20326100  1
  H  226  1  0.53389000  0.72211300  0.19216400  1
  H  227  1  0.69940400  0.79729300  0.18215600  1
  H  228  1  0.67952600  0.80815200  0.15900200  1
  H  229  1  0.29505500  0.70227900  0.14800800  1
  H  230  1  0.28339200  0.70642900  0.17385500  1
  H  232  1  0.59005600  0.81795200  0.14497800  1
  H  234  1  0.70112800  0.76424400  0.19447200  1
  H  236  1  0.35510000  0.71630700  0.11581900  1
  H  238  1  0.29451700  0.73311900  0.19555600  1
  H  245  1  0.94083500  0.74831900  0.80597500  1
  H  254  1  0.99908000  0.72475600  0.86081700  1
  H  257  1  0.03188100  0.76508900  0.87267200  1
  H  258  1  0.98086400  0.77751800  0.88701200  1
  H  259  1  0.09737800  0.77323700  0.79798800  1
  H  260  1  0.03375600  0.77916000  0.80908800  1
  H  261  1  0.19937900  0.70398300  0.81921000  1
  H  262  1  0.17955000  0.69316500  0.84238800  1
  H  263  1  0.79514700  0.79905900  0.85332500  1
  H  264  1  0.78349400  0.79493400  0.82747000  1
  H  266  1  0.09009700  0.68336700  0.85641000  1
  H  268  1  0.20111700  0.73698300  0.80680200  1
  H  270  1  0.85552800  0.78494400  0.88560600  1
  H  272  1  0.79454600  0.76823800  0.80577200  1
  H  279  1  0.81186800  0.55592100  0.50302500  1
  H  288  1  0.75358400  0.61081300  0.52652800  1
  H  291  1  0.72083600  0.62260500  0.48618500  1
  H  292  1  0.77184400  0.63692800  0.47373300  1
  H  293  1  0.65524000  0.54793200  0.47813500  1
  H  294  1  0.71887700  0.55900800  0.47219700  1
  H  295  1  0.55354000  0.56913800  0.54745400  1
  H  296  1  0.57333200  0.59233500  0.55824000  1
  H  297  1  0.95734400  0.60312700  0.45208500  1
  H  298  1  0.96889400  0.57727100  0.45627900  1
  H  300  1  0.66290800  0.60636400  0.56797300  1
  H  302  1  0.55165000  0.55673100  0.51445200  1
  H  304  1  0.89817000  0.63529300  0.46622500  1
  H  306  1  0.95812200  0.55567200  0.48308900  1
  H  313  1  0.31186100  0.94543700  0.49829900  1
  H  322  1  0.25359500  0.89060200  0.47474900  1
  H  325  1  0.22088300  0.87870600  0.51504600  1
  H  326  1  0.27192100  0.86437800  0.52747000  1
  H  327  1  0.15512900  0.95334600  0.52325100  1
  H  328  1  0.21882500  0.94229700  0.52918900  1
  H  329  1  0.05332500  0.93222500  0.45398700  1
  H  330  1  0.07320000  0.90907200  0.44312500  1
  H  331  1  0.45740800  0.89818500  0.54916600  1
  H  332  1  0.46896200  0.92404100  0.54498300  1
  H  334  1  0.16272800  0.89506200  0.43335000  1
  H  336  1  0.05145300  0.94454200  0.48703800  1
  H  338  1  0.39832800  0.86609300  0.53503900  1
  H  340  1  0.45814600  0.94565000  0.51818000  1
  H  347  1  0.06443100  0.74690000  0.30624100  1
  H  356  1  0.00084600  0.72438000  0.36020400  1
  H  359  1  0.96855000  0.76620000  0.37146200  1
  H  360  1  0.01960900  0.77787300  0.38643000  1
  H  361  1  0.91071100  0.77408600  0.29640700  1
  H  362  1  0.97552000  0.77856500  0.30727700  1
  H  363  1  0.79356800  0.70951600  0.32051500  1
  H  364  1  0.81329600  0.69760300  0.34322000  1
  H  365  1  0.21332400  0.79435400  0.35557600  1
  H  366  1  0.22794200  0.78867500  0.33016500  1
  H  368  1  0.90223400  0.68492700  0.35576100  1
  H  370  1  0.79839000  0.74358900  0.30934500  1
  H  372  1  0.14705000  0.78332900  0.38668000  1
  H  374  1  0.21423000  0.76056200  0.30968400  1
  H  381  1  0.56438800  0.75448800  0.69509200  1
  H  390  1  0.50081200  0.77697600  0.64110200  1
  H  393  1  0.46851100  0.73512700  0.62989800  1
  H  394  1  0.51956200  0.72343000  0.61494300  1
  H  395  1  0.41086700  0.72734000  0.70500700  1
  H  396  1  0.47564600  0.72286500  0.69413800  1
  H  397  1  0.29356600  0.79188400  0.68078800  1
  H  398  1  0.31325000  0.80374900  0.65805200  1
  H  399  1  0.71323700  0.70698100  0.64578200  1
  H  400  1  0.72787000  0.71265000  0.67119800  1
  H  402  1  0.40216800  0.81642700  0.64551700  1
  H  404  1  0.29835700  0.75785900  0.69205700  1
  H  406  1  0.64662200  0.71808600  0.61459000  1
  H  408  1  0.71423600  0.74078000  0.69166800  1
  H  415  1  0.18813900  0.44499800  0.49713900  1
  H  424  1  0.25173200  0.39090100  0.47471300  1
  H  427  1  0.28418400  0.37982900  0.51647300  1
  H  428  1  0.23319400  0.36486000  0.52817700  1
  H  429  1  0.34190000  0.45499200  0.52404600  1
  H  430  1  0.27717100  0.44412900  0.52861800  1
  H  431  1  0.45843800  0.43075100  0.45931000  1
  H  432  1  0.43870900  0.40797700  0.44752700  1
  H  433  1  0.03994100  0.39586200  0.54506500  1
  H  434  1  0.02530600  0.42125600  0.53929300  1
  H  436  1  0.34959800  0.39516800  0.43510900  1
  H  438  1  0.45409000  0.44203200  0.49336000  1
  H  440  1  0.10470400  0.36481600  0.53372900  1
  H  442  1  0.03840500  0.44159500  0.51100400  1
  H  449  1  0.68820400  0.05633500  0.50421600  1
  H  458  1  0.75177400  0.11037900  0.52667900  1
  H  461  1  0.78416400  0.12155800  0.48496300  1
  H  462  1  0.73313400  0.13653200  0.47329200  1
  H  463  1  0.84200000  0.04639300  0.47724500  1
  H  464  1  0.77725800  0.05725700  0.47266700  1
  H  465  1  0.95859600  0.07055200  0.54195000  1
  H  466  1  0.93883600  0.09328900  0.55380000  1
  H  467  1  0.53988000  0.10551300  0.45638800  1
  H  468  1  0.52526000  0.08011600  0.46215200  1
  H  470  1  0.84980400  0.10610100  0.56624600  1
  H  472  1  0.95424200  0.05934800  0.50787100  1
  H  474  1  0.60459600  0.13649900  0.46770100  1
  H  476  1  0.53845600  0.05976700  0.49043400  1
  H  483  1  0.93813600  0.25418000  0.69447600  1
  H  492  1  0.00164100  0.27668500  0.64045600  1
  H  495  1  0.03417200  0.23495300  0.62926400  1
  H  496  1  0.98321600  0.22320500  0.61430900  1
  H  497  1  0.09200000  0.22724100  0.70441300  1
  H  498  1  0.02732900  0.22263300  0.69349000  1
  H  499  1  0.20838200  0.29201300  0.68033800  1
  H  500  1  0.18860500  0.30388100  0.65761300  1
  H  501  1  0.78985200  0.20633500  0.64527800  1
  H  502  1  0.77514000  0.21210700  0.67066100  1
  H  504  1  0.09950500  0.31633200  0.64486500  1
  H  506  1  0.20402900  0.25790600  0.69149000  1
  H  508  1  0.85533400  0.21747900  0.61420600  1
  H  510  1  0.78849200  0.24032600  0.69106100  1
  H  517  1  0.43818300  0.24711900  0.30687400  1
  H  526  1  0.50168200  0.22464400  0.36092000  1
  H  529  1  0.53420900  0.26640400  0.37205900  1
  H  530  1  0.48325900  0.27817400  0.38700100  1
  H  531  1  0.59183800  0.27401700  0.29685100  1
  H  532  1  0.52719800  0.27862300  0.30777300  1
  H  533  1  0.70838000  0.20927100  0.32103400  1
  H  534  1  0.68865600  0.19745000  0.34378900  1
  H  535  1  0.28994700  0.29501700  0.35604000  1
  H  536  1  0.27521600  0.28925300  0.33065300  1
  H  538  1  0.59957000  0.18499900  0.35653400  1
  H  540  1  0.70405400  0.24333200  0.30978600  1
  H  542  1  0.35570800  0.28379000  0.38719600  1
  H  544  1  0.28848300  0.26101600  0.31026800  1
  H  551  1  0.99593400  0.03686700  0.99204000  1
  H  552  1  0.91792800  0.01304100  0.98495200  1
  H  553  1  0.01200900  0.96199700  0.01443500  1
  H  555  1  0.09850600  0.96864300  0.03266100  1
  H  556  1  0.12537100  0.99318100  0.03619100  1
  H  567  1  0.49596100  0.46450800  0.00947500  1
  H  568  1  0.41807000  0.48838100  0.01658000  1
  H  569  1  0.51191400  0.53928600  0.98675500  1
  H  571  1  0.59821200  0.53254400  0.96843100  1
  H  572  1  0.62501400  0.50798500  0.96497000  1
  H  583  1  0.24559300  0.25948800  0.78638700  1
  H  584  1  0.16768200  0.26657300  0.76251400  1
  H  585  1  0.26177800  0.23694800  0.71156300  1
  H  587  1  0.34811500  0.21864700  0.71828600  1
  H  588  1  0.37486600  0.21513600  0.74284300  1
  H  599  1  0.74559500  0.24191100  0.21493900  1
  H  600  1  0.66766800  0.23480500  0.23879800  1
  H  601  1  0.76177600  0.26435800  0.28979000  1
  H  603  1  0.84813200  0.28265600  0.28309200  1
  H  604  1  0.87489000  0.28619500  0.25853900  1
  H  615  1  0.01185900  0.46493400  0.99476600  1
  H  616  1  0.08682000  0.48980600  0.98701000  1
  H  617  1  0.98448600  0.54036800  0.01337600  1
  H  619  1  0.89835800  0.53301600  0.03147300  1
  H  620  1  0.87507100  0.50820300  0.03625100  1
  H  631  1  0.51189200  0.03642100  0.00651700  1
  H  632  1  0.58684800  0.01155400  0.01428900  1
  H  633  1  0.48440000  0.96096000  0.98804700  1
  H  635  1  0.39823100  0.96829300  0.96996700  1
  H  636  1  0.37495400  0.99310000  0.96515500  1
  H  647  1  0.76204600  0.24467400  0.78593300  1
  H  648  1  0.83701100  0.23686300  0.76108100  1
  H  649  1  0.73453200  0.26297800  0.71043200  1
  H  651  1  0.64840600  0.28110000  0.71773700  1
  H  652  1  0.62515600  0.28597100  0.74253600  1
  H  663  1  0.26207300  0.25663700  0.21540600  1
  H  664  1  0.33705400  0.26442200  0.24025800  1
  H  665  1  0.23447200  0.23837000  0.29091100  1
  H  667  1  0.14828100  0.22028900  0.28361000  1
  H  668  1  0.12500900  0.21542500  0.25881100  1
  H  679  1  0.75674600  0.74198400  0.21442400  1
  H  680  1  0.83465800  0.73489200  0.23829200  1
  H  681  1  0.74046000  0.76443000  0.28927300  1
  H  683  1  0.65400600  0.78266700  0.28257500  1
  H  684  1  0.62721800  0.78617900  0.25802200  1
  H  695  1  0.25674700  0.75930400  0.78692900  1
  H  696  1  0.33466900  0.76641500  0.76307300  1
  H  697  1  0.24046100  0.73694800  0.71205300  1
  H  699  1  0.15398900  0.71871400  0.71872800  1
  H  700  1  0.12719300  0.71517400  0.74327600  1
  H  711  1  0.24069100  0.75624100  0.21479400  1
  H  712  1  0.16572200  0.76405700  0.23964800  1
  H  713  1  0.26828000  0.73799900  0.29030600  1
  H  715  1  0.35449100  0.71993400  0.28301700  1
  H  716  1  0.37777100  0.71506500  0.25822000  1
  H  727  1  0.74066200  0.74513100  0.78654800  1
  H  728  1  0.66567600  0.73734000  0.76169300  1
  H  729  1  0.76833600  0.76333600  0.71103100  1
  H  731  1  0.85461200  0.78136200  0.71831800  1
  H  732  1  0.87791000  0.78622300  0.74311400  1
  H  743  1  0.49575100  0.53691700  0.49219700  1
  H  744  1  0.41774300  0.51309100  0.48510300  1
  H  745  1  0.51221600  0.46196000  0.51425300  1
  H  747  1  0.59883800  0.46856300  0.53241200  1
  H  748  1  0.62566400  0.49309800  0.53601700  1
  H  759  1  0.99578000  0.96445700  0.50931400  1
  H  760  1  0.91788200  0.98833000  0.51642400  1
  H  761  1  0.01212900  0.03932600  0.48693900  1
  H  763  1  0.09856000  0.03262900  0.46868500  1
  H  764  1  0.12532100  0.00807400  0.46514900  1
  H  775  1  0.51211800  0.96485800  0.49508400  1
  H  776  1  0.58705200  0.98971000  0.48721900  1
  H  777  1  0.48425400  0.04043000  0.51302000  1
  H  779  1  0.39801900  0.03317200  0.53108300  1
  H  780  1  0.37480400  0.00838500  0.53604000  1
  H  791  1  0.01215200  0.53649900  0.50619800  1
  H  792  1  0.08708000  0.51165000  0.51407900  1
  H  793  1  0.98416400  0.46089900  0.48840700  1
  H  795  1  0.89789200  0.46813700  0.47036100  1
  H  796  1  0.87468600  0.49291800  0.46536900  1
  H  807  1  0.34144600  0.16867200  0.94659100  1
  H  808  1  0.36516500  0.19882200  0.92411600  1
  H  809  1  0.44215500  0.15659800  0.87814800  1
  H  811  1  0.44407100  0.11893400  0.88474000  1
  H  812  1  0.41789800  0.10789100  0.90730100  1
  H  823  1  0.84165200  0.33266300  0.05467200  1
  H  824  1  0.86538400  0.30252200  0.07715500  1
  H  825  1  0.94213600  0.34477200  0.12315400  1
  H  827  1  0.94394000  0.38243900  0.11656800  1
  H  828  1  0.91778400  0.39347400  0.09399900  1
  H  839  1  0.59119200  0.30458400  0.91815200  1
  H  840  1  0.61481200  0.32694000  0.94840200  1
  H  841  1  0.69274800  0.37291800  0.90642700  1
  H  843  1  0.69503400  0.36643300  0.86875300  1
  H  844  1  0.66878600  0.34393700  0.85760300  1
  H  855  1  0.09075100  0.19672600  0.08320900  1
  H  856  1  0.11437000  0.17439600  0.05293500  1
  H  857  1  0.19319700  0.12855400  0.09483200  1
  H  859  1  0.19575300  0.13505400  0.13249900  1
  H  860  1  0.16934900  0.15751000  0.14367600  1
  H  871  1  0.66105800  0.83239400  0.05406200  1
  H  872  1  0.63843800  0.80229200  0.07673700  1
  H  873  1  0.55873200  0.84437800  0.12219100  1
  H  875  1  0.55480900  0.88194400  0.11523400  1
  H  876  1  0.58048800  0.89296300  0.09258700  1
  H  887  1  0.16084100  0.66894700  0.94735100  1
  H  888  1  0.13823400  0.69904400  0.92467000  1
  H  889  1  0.05872600  0.65694100  0.87918300  1
  H  891  1  0.05488600  0.61937100  0.88613200  1
  H  892  1  0.08053800  0.60835600  0.90878400  1
  H  903  1  0.41020400  0.69713200  0.08249700  1
  H  904  1  0.38733500  0.67490500  0.05205000  1
  H  905  1  0.31594100  0.62731400  0.09377700  1
  H  907  1  0.31399300  0.63336100  0.13154600  1
  H  908  1  0.33824800  0.65607000  0.14286800  1
  H  919  1  0.91058200  0.80423100  0.91883400  1
  H  920  1  0.88767800  0.82643000  0.94930000  1
  H  921  1  0.81549000  0.87390900  0.90763200  1
  H  923  1  0.81332400  0.86785200  0.86986800  1
  H  924  1  0.83773400  0.84517700  0.85852600  1
  H  935  1  0.84313400  0.66882000  0.44719500  1
  H  936  1  0.86604700  0.69925800  0.42496800  1
  H  937  1  0.93645600  0.65748900  0.37721900  1
  H  939  1  0.93806600  0.61971000  0.38321900  1
  H  940  1  0.91394600  0.60839800  0.40595600  1
  H  951  1  0.34335200  0.83251800  0.55406400  1
  H  952  1  0.36626100  0.80208600  0.57629600  1
  H  953  1  0.43643100  0.84387000  0.62408100  1
  H  955  1  0.43793600  0.88165300  0.61809200  1
  H  956  1  0.41384000  0.89296000  0.59535000  1
  H  967  1  0.09146500  0.80414100  0.41879700  1
  H  968  1  0.11397700  0.82679800  0.44892500  1
  H  969  1  0.19387700  0.87226700  0.40691100  1
  H  971  1  0.19800300  0.86532600  0.36935300  1
  H  972  1  0.17240500  0.84268200  0.35830300  1
  H  983  1  0.59106000  0.69716800  0.58257000  1
  H  984  1  0.61358400  0.67454000  0.55242000  1
  H  985  1  0.69430000  0.62919400  0.59435600  1
  H  987  1  0.69865200  0.63614700  0.63190800  1
  H  988  1  0.67290600  0.65875400  0.64298200  1
  H  999  1  0.15941700  0.33219900  0.55344100  1
  H  1000  1  0.13756100  0.30180900  0.57585700  1
  H  1001  1  0.06446800  0.34349500  0.62312000  1
  H  1003  1  0.06093000  0.38118600  0.61678400  1
  H  1004  1  0.08459000  0.39247000  0.59397200  1
  H  1015  1  0.65920000  0.16914000  0.44797800  1
  H  1016  1  0.63736800  0.19952800  0.42555700  1
  H  1017  1  0.56447400  0.15783500  0.37825900  1
  H  1019  1  0.56101100  0.12013800  0.38458300  1
  H  1020  1  0.58464200  0.10885600  0.40739800  1
  H  1031  1  0.90992000  0.19757200  0.58180300  1
  H  1032  1  0.88812000  0.17504300  0.55148600  1
  H  1033  1  0.81470800  0.12797500  0.59331600  1
  H  1035  1  0.81097000  0.13446900  0.63097600  1
  H  1036  1  0.83462200  0.15731700  0.64218400  1
  H  1047  1  0.41024000  0.30378700  0.41952300  1
  H  1048  1  0.38838900  0.32628900  0.44985600  1
  H  1049  1  0.31432900  0.37326500  0.40807900  1
  H  1051  1  0.31042500  0.36676500  0.37042300  1
  H  1052  1  0.33421700  0.34394500  0.35919700  1
  N  8  1  0.44605200  0.09018700  0.96027800  1
  N  15  1  0.08017500  0.08128000  0.04717900  1
  N  17  1  0.26150900  0.12353600  0.98149800  1
  N  18  1  0.18847300  0.05667200  0.98312900  1
  N  27  1  0.16868200  0.11280200  0.05406300  1
  N  29  1  0.09194700  0.05182900  0.01219600  1
  N  31  1  0.36938300  0.12532400  0.96034200  1
  N  33  1  0.41695500  0.05215900  0.98539100  1
  N  42  1  0.94609400  0.41113100  0.04098800  1
  N  49  1  0.57997900  0.42009200  0.95422800  1
  N  51  1  0.76150600  0.37781000  0.01978700  1
  N  52  1  0.68848300  0.44466600  0.01824900  1
  N  61  1  0.66856800  0.38861200  0.94724400  1
  N  63  1  0.59172200  0.44944400  0.98930100  1
  N  65  1  0.86937800  0.37599900  0.04093000  1
  N  67  1  0.91697400  0.44917200  0.01590700  1
  N  76  1  0.69626400  0.29088700  0.83968200  1
  N  83  1  0.32965200  0.20439500  0.83087900  1
  N  85  1  0.51160400  0.26984400  0.87302200  1
  N  86  1  0.43844800  0.26829300  0.80616100  1
  N  95  1  0.41823900  0.19741700  0.86236800  1
  N  97  1  0.34155100  0.23938900  0.80142800  1
  N  99  1  0.61961400  0.29091900  0.87478400  1
  N  101  1  0.66702000  0.26579400  0.80164100  1
  N  110  1  0.19624000  0.21047300  0.16166700  1
  N  117  1  0.82965200  0.29699300  0.17042300  1
  N  119  1  0.01157900  0.23152400  0.12831700  1
  N  120  1  0.93842800  0.23309500  0.19514700  1
  N  129  1  0.91822600  0.30394900  0.13892700  1
  N  131  1  0.84160700  0.26204300  0.19992000  1
  N  133  1  0.11959000  0.21042400  0.12657400  1
  N  135  1  0.16699200  0.23555300  0.19970200  1
  N  144  1  0.55082600  0.90869400  0.03659300  1
  N  151  1  0.93050600  0.91901800  0.95848800  1
  N  153  1  0.74308600  0.87832500  0.02049200  1
  N  154  1  0.81015200  0.94574600  0.01864800  1
  N  163  1  0.84063200  0.88865200  0.94877300  1
  N  165  1  0.91440900  0.94802600  0.99338400  1
  N  167  1  0.63252200  0.87512100  0.03966300  1
  N  169  1  0.57917400  0.94622200  0.01095900  1
  N  178  1  0.05079500  0.59267200  0.96484000  1
  N  185  1  0.43065900  0.58227700  0.04280100  1
  N  187  1  0.24309400  0.62302800  0.98089500  1
  N  188  1  0.31018400  0.55560500  0.98264700  1
  N  197  1  0.34076400  0.61261900  0.05259500  1
  N  199  1  0.41456100  0.55336600  0.00780700  1
  N  201  1  0.13252800  0.62624300  0.96174300  1
  N  203  1  0.07921300  0.55513100  0.99043600  1
  N  212  1  0.30695200  0.70985900  0.16115300  1
  N  219  1  0.67229300  0.79708300  0.16994800  1
  N  221  1  0.49122600  0.73124200  0.12773400  1
  N  222  1  0.56428800  0.73298800  0.19463500  1
  N  231  1  0.58394200  0.80378600  0.13830400  1
  N  233  1  0.66078800  0.76207200  0.19940100  1
  N  235  1  0.38342500  0.70999300  0.12598900  1
  N  237  1  0.33578300  0.73514300  0.19910800  1
  N  246  1  0.80697400  0.79146400  0.84017900  1
  N  253  1  0.17229000  0.70421600  0.83142500  1
  N  255  1  0.99125000  0.77007500  0.87360800  1
  N  256  1  0.06430400  0.76831300  0.80673700  1
  N  265  1  0.08395700  0.69753400  0.86307700  1
  N  267  1  0.16072700  0.73918400  0.80193000  1
  N  269  1  0.88344200  0.79134500  0.87533400  1
  N  271  1  0.83580800  0.76619500  0.80222900  1
  N  280  1  0.94563000  0.59002700  0.45977700  1
  N  287  1  0.58054000  0.58137500  0.54717900  1
  N  289  1  0.76146600  0.62353400  0.48119300  1
  N  290  1  0.68835000  0.55666600  0.48305500  1
  N  299  1  0.66881800  0.61305100  0.55379900  1
  N  301  1  0.59203300  0.55184100  0.51224700  1
  N  303  1  0.86932000  0.62528500  0.45997900  1
  N  305  1  0.91686600  0.55213400  0.48515400  1
  N  314  1  0.44568200  0.91128800  0.54148500  1
  N  321  1  0.08035200  0.91999300  0.45422500  1
  N  323  1  0.26146400  0.87781300  0.52009700  1
  N  324  1  0.18836100  0.94467400  0.51832300  1
  N  333  1  0.16870700  0.88835800  0.44751200  1
  N  335  1  0.09181300  0.94943400  0.48924300  1
  N  337  1  0.36932200  0.87603700  0.54129100  1
  N  339  1  0.41688500  0.94920000  0.51614300  1
  N  348  1  0.20179200  0.78659700  0.34248700  1
  N  355  1  0.82205600  0.70851700  0.33226600  1
  N  357  1  0.00964100  0.77051900  0.37293300  1
  N  358  1  0.94240600  0.76867500  0.30553300  1
  N  367  1  0.91200800  0.69874500  0.36259400  1
  N  369  1  0.83806400  0.74348800  0.30330800  1
  N  371  1  0.12018900  0.78975100  0.37604700  1
  N  373  1  0.17339200  0.76090000  0.30499900  1
  N  382  1  0.70178200  0.71476600  0.65886600  1
  N  389  1  0.32203600  0.79285900  0.66902900  1
  N  391  1  0.50961800  0.73083600  0.62841400  1
  N  392  1  0.44240800  0.73271700  0.69578800  1
  N  401  1  0.41197400  0.80260800  0.63869100  1
  N  403  1  0.33810100  0.75795100  0.69804000  1
  N  405  1  0.62018400  0.71158800  0.62532200  1
  N  407  1  0.67339400  0.74046300  0.69634500  1
  N  416  1  0.05116200  0.40886500  0.53711200  1
  N  423  1  0.43008300  0.41894500  0.45844300  1
  N  425  1  0.24309400  0.37833900  0.52078200  1
  N  426  1  0.31030000  0.44577400  0.51871500  1
  N  435  1  0.34035300  0.38842100  0.44902100  1
  N  437  1  0.41435300  0.44803100  0.49330200  1
  N  439  1  0.13255500  0.37516900  0.54002800  1
  N  441  1  0.07926000  0.44627400  0.51125700  1
  N  450  1  0.55112800  0.09250200  0.46432600  1
  N  457  1  0.93024600  0.08235600  0.54284700  1
  N  459  1  0.74310200  0.12301300  0.48060400  1
  N  460  1  0.81033300  0.05557600  0.48258300  1
  N  469  1  0.84048800  0.11285800  0.55234400  1
  N  471  1  0.91450800  0.05336100  0.50789500  1
  N  473  1  0.63256100  0.12619900  0.46138400  1
  N  475  1  0.57929800  0.05507900  0.49014100  1
  N  484  1  0.80124200  0.21419200  0.65832600  1
  N  491  1  0.17997400  0.29293900  0.66855500  1
  N  493  1  0.99313000  0.23056900  0.62780400  1
  N  494  1  0.06029200  0.23258500  0.69525600  1
  N  503  1  0.09017800  0.30244900  0.63807400  1
  N  505  1  0.16432500  0.25794200  0.69750800  1
  N  507  1  0.88275000  0.21117000  0.62471200  1
  N  509  1  0.82934500  0.24003700  0.69574300  1
  N  518  1  0.30125300  0.28713300  0.34300000  1
  N  525  1  0.67999400  0.20836800  0.33282600  1
  N  527  1  0.49315000  0.27076000  0.37353000  1
  N  528  1  0.56028600  0.26870700  0.30610200  1
  N  537  1  0.59021500  0.19888200  0.36331900  1
  N  539  1  0.66428600  0.24330300  0.30382100  1
  N  541  1  0.38274800  0.29017200  0.37659900  1
  N  543  1  0.32934200  0.26128400  0.30559600  1
  N  554  1  0.09939100  0.98377000  0.02794800  1
  N  570  1  0.59912400  0.51743600  0.97320700  1
  N  586  1  0.34899300  0.22339400  0.73340300  1
  N  602  1  0.84900800  0.27792900  0.26796900  1
  N  618  1  0.89974000  0.51767200  0.02753900  1
  N  634  1  0.39963700  0.98364300  0.97387500  1
  N  650  1  0.64980400  0.27722100  0.73309400  1
  N  666  1  0.14969900  0.22416200  0.26825100  1
  N  682  1  0.65316400  0.77794000  0.26745000  1
  N  698  1  0.15314900  0.72342100  0.73385700  1
  N  714  1  0.35307000  0.72380100  0.26765700  1
  N  730  1  0.85317000  0.77750000  0.73367800  1
  N  746  1  0.59964600  0.48371000  0.52776000  1
  N  762  1  0.09939500  0.01750100  0.47340000  1
  N  778  1  0.39949000  0.01779800  0.52727300  1
  N  794  1  0.89938700  0.48351700  0.47414500  1
  N  810  1  0.42284100  0.12081000  0.89839700  1
  N  826  1  0.92276000  0.38055500  0.10290200  1
  N  842  1  0.67364200  0.35280100  0.87055500  1
  N  858  1  0.17418000  0.14865100  0.13072100  1
  N  874  1  0.57634800  0.88010700  0.10163700  1
  N  890  1  0.07637300  0.62121300  0.89973700  1
  N  906  1  0.33408000  0.64727100  0.12984000  1
  N  922  1  0.83357800  0.85397300  0.87155600  1
  N  938  1  0.91816000  0.62142800  0.39716300  1
  N  954  1  0.41808700  0.87992800  0.60413800  1
  N  970  1  0.17644400  0.85173000  0.37116400  1
  N  986  1  0.67692800  0.64970900  0.63011800  1
  N  1002  1  0.08113500  0.37949700  0.60289300  1
  N  1018  1  0.58116000  0.12183100  0.39848300  1
  N  1034  1  0.83123000  0.14834300  0.62924600  1
  N  1050  1  0.33083000  0.35291700  0.37213700  1
  O  559  1  0.15575200  0.02223400  0.01384400  1
  O  560  1  0.85860600  0.97890300  0.98574400  1
  O  575  1  0.65558400  0.47904000  0.98743300  1
  O  576  1  0.35875900  0.52251800  0.01568700  1
  O  591  1  0.40537000  0.23753700  0.77183200  1
  O  592  1  0.10838500  0.26567800  0.72835400  1
  O  607  1  0.90538000  0.26382300  0.22952600  1
  O  608  1  0.60836400  0.23566600  0.27296000  1
  O  623  1  0.84940000  0.47783600  0.01502800  1
  O  624  1  0.14029200  0.52505100  0.98553900  1
  O  639  1  0.34936300  0.02350500  0.98633800  1
  O  640  1  0.64033800  0.97631600  0.01575300  1
  O  655  1  0.59949600  0.26484700  0.77297000  1
  O  656  1  0.89053600  0.23536100  0.72583800  1
  O  671  1  0.09944300  0.23656700  0.22837000  1
  O  672  1  0.39057800  0.26590900  0.27550200  1
  O  687  1  0.59688600  0.76380000  0.22898200  1
  O  688  1  0.89388400  0.73569800  0.27244800  1
  O  703  1  0.09687400  0.73752500  0.77234000  1
  O  704  1  0.39390000  0.76564400  0.72891700  1
  O  719  1  0.40331700  0.73619800  0.22777300  1
  O  720  1  0.11225500  0.76562900  0.27489500  1
  O  735  1  0.90336400  0.76507400  0.77356500  1
  O  736  1  0.61221300  0.73578400  0.72644500  1
  O  751  1  0.65582400  0.52224500  0.51375700  1
  O  752  1  0.35849300  0.47892600  0.48582700  1
  O  767  1  0.15566300  0.97903100  0.48752300  1
  O  768  1  0.85864200  0.02249400  0.51560400  1
  O  783  1  0.34936800  0.97786300  0.51500500  1
  O  784  1  0.64041200  0.02496800  0.48552300  1
  O  799  1  0.84933000  0.52347900  0.48636300  1
  O  800  1  0.14045900  0.47639700  0.51577000  1
  O  815  1  0.32100000  0.11179500  0.92922900  1
  O  816  1  0.41705300  0.21906400  0.89359300  1
  O  831  1  0.82089200  0.38950400  0.07203400  1
  O  832  1  0.91718700  0.28229800  0.10770100  1
  O  847  1  0.57173400  0.32212300  0.86125200  1
  O  848  1  0.66683800  0.35733700  0.96881000  1
  O  863  1  0.07209900  0.17917700  0.14016900  1
  O  864  1  0.16665500  0.14407100  0.03248300  1
  O  879  1  0.67754400  0.88973400  0.07095200  1
  O  880  1  0.58635800  0.78198200  0.10719800  1
  O  895  1  0.17759300  0.61164500  0.93045800  1
  O  896  1  0.08624000  0.71934200  0.89418700  1
  O  911  1  0.43296900  0.67903300  0.13921600  1
  O  912  1  0.33467400  0.64430300  0.03168400  1
  O  927  1  0.93264200  0.82235100  0.86205700  1
  O  928  1  0.83476800  0.85696700  0.96970000  1
  O  943  1  0.81941000  0.61218500  0.42903900  1
  O  944  1  0.91832000  0.71961200  0.39429600  1
  O  959  1  0.31931500  0.88910800  0.57222100  1
  O  960  1  0.41844000  0.78174300  0.60699100  1
  O  975  1  0.07541200  0.82105700  0.36141000  1
  O  976  1  0.16599500  0.85724300  0.46929100  1
  O  991  1  0.57573600  0.68024700  0.64000700  1
  O  992  1  0.66584200  0.64416300  0.53201200  1
  O  1007  1  0.17927100  0.38931600  0.57116400  1
  O  1008  1  0.08506400  0.28139500  0.60646800  1
  O  1023  1  0.67931800  0.11206700  0.43025100  1
  O  1024  1  0.58496600  0.21993600  0.39492600  1
  O  1039  1  0.92929000  0.18009100  0.63903400  1
  O  1040  1  0.83544500  0.14438900  0.53117600  1
  O  1055  1  0.42902700  0.32128200  0.36224300  1
  O  1056  1  0.33554900  0.35689400  0.47020000  1
