# generated using pymatgen
data_H20C35(NO)4
_symmetry_space_group_name_H-M   'P 1'
_cell_length_a   43.77540000
_cell_length_b   64.04280000
_cell_length_c   64.04280000
_cell_angle_alpha   90.00000000
_cell_angle_beta   90.00000000
_cell_angle_gamma   90.00000000
_symmetry_Int_Tables_number   1
_chemical_formula_structural   H20C35(NO)4
_chemical_formula_sum   'H640 C1120 N128 O128'
_cell_volume   179543.93774089
_cell_formula_units_Z   32
loop_
 _symmetry_equiv_pos_site_id
 _symmetry_equiv_pos_as_xyz
  1  'x, y, z'
loop_
 _atom_site_type_symbol
 _atom_site_label
 _atom_site_symmetry_multiplicity
 _atom_site_fract_x
 _atom_site_fract_y
 _atom_site_fract_z
 _atom_site_occupancy
  H  26  1  0.45510500  0.17840900  0.29537900  1
  H  27  1  0.40331500  0.17246600  0.28645500  1
  H  28  1  0.46058000  0.11774100  0.32087600  1
  H  29  1  0.40876100  0.11182800  0.31194200  1
  H  30  1  0.35352300  0.12510100  0.32833100  1
  H  31  1  0.32728000  0.14395500  0.35500300  1
  H  32  1  0.31761700  0.19512000  0.31400600  1
  H  33  1  0.34415000  0.17674600  0.28787600  1
  H  34  1  0.31484800  0.14437200  0.26739000  1
  H  35  1  0.30578600  0.16031900  0.23444300  1
  H  36  1  0.40070900  0.16116100  0.22290600  1
  H  37  1  0.40955600  0.14460200  0.25515900  1
  H  38  1  0.40239000  0.10618800  0.26898600  1
  H  39  1  0.31625100  0.11320500  0.29772100  1
  H  40  1  0.30646400  0.07712800  0.29277200  1
  H  41  1  0.39239400  0.07035700  0.26357200  1
  H  67  1  0.45513200  0.87740400  0.76045900  1
  H  68  1  0.40332700  0.88330800  0.76934700  1
  H  69  1  0.46051900  0.93803100  0.73486200  1
  H  70  1  0.40867500  0.94392400  0.74378300  1
  H  71  1  0.35347200  0.93067200  0.72742800  1
  H  72  1  0.32734100  0.91180800  0.70072100  1
  H  73  1  0.31776700  0.86059000  0.74166400  1
  H  74  1  0.34418900  0.87898600  0.76783100  1
  H  75  1  0.31477000  0.91134100  0.78832500  1
  H  76  1  0.30567400  0.89542700  0.82128500  1
  H  77  1  0.40058800  0.89464000  0.83288700  1
  H  78  1  0.40945800  0.91118600  0.80063100  1
  H  79  1  0.40232200  0.94957200  0.78677700  1
  H  80  1  0.31619100  0.94254300  0.75804200  1
  H  81  1  0.30638400  0.97861600  0.76300900  1
  H  82  1  0.39230700  0.98539500  0.79221000  1
  H  108  1  0.45516600  0.76035300  0.17833100  1
  H  109  1  0.40337300  0.76925200  0.17241900  1
  H  110  1  0.46057600  0.73478900  0.11769300  1
  H  111  1  0.40874800  0.74372300  0.11179000  1
  H  112  1  0.35348800  0.72737800  0.12508600  1
  H  113  1  0.32725000  0.70072200  0.14395900  1
  H  114  1  0.31768500  0.74173700  0.19511800  1
  H  115  1  0.34421600  0.76784800  0.17672100  1
  H  116  1  0.31490300  0.78835100  0.14434700  1
  H  117  1  0.30589300  0.82129800  0.16031600  1
  H  118  1  0.40084100  0.83277500  0.16112800  1
  H  119  1  0.40962500  0.80052900  0.14453600  1
  H  120  1  0.40240600  0.78670400  0.10614000  1
  H  121  1  0.31625300  0.75799700  0.11317900  1
  H  122  1  0.30646200  0.76293400  0.07710000  1
  H  123  1  0.39239800  0.79211900  0.07031000  1
  H  149  1  0.45511800  0.29527900  0.87732100  1
  H  150  1  0.40334500  0.28634800  0.88326400  1
  H  151  1  0.46054400  0.32087800  0.93794700  1
  H  152  1  0.40873600  0.31193800  0.94386400  1
  H  153  1  0.35348400  0.32829900  0.93067200  1
  H  154  1  0.32728600  0.35499900  0.91183000  1
  H  155  1  0.31775600  0.31408100  0.86058900  1
  H  156  1  0.34424300  0.28792300  0.87895600  1
  H  157  1  0.31477700  0.26744300  0.91127700  1
  H  158  1  0.30565800  0.23450600  0.89532000  1
  H  159  1  0.40054900  0.22284300  0.89458200  1
  H  160  1  0.40945400  0.25508000  0.91115500  1
  H  161  1  0.40239300  0.26897600  0.94954500  1
  H  162  1  0.31622100  0.29765900  0.94249500  1
  H  163  1  0.30641400  0.29270600  0.97856900  1
  H  164  1  0.39237500  0.26356100  0.98537600  1
  H  190  1  0.60105200  0.87740900  0.29516400  1
  H  191  1  0.65285700  0.88330700  0.28627700  1
  H  192  1  0.59572000  0.93798900  0.32086200  1
  H  193  1  0.64756700  0.94388200  0.31194300  1
  H  194  1  0.70277600  0.93067000  0.32829200  1
  H  195  1  0.72892700  0.91180800  0.35499600  1
  H  196  1  0.73839200  0.86056100  0.31407800  1
  H  197  1  0.71195000  0.87894800  0.28791500  1
  H  198  1  0.74150100  0.91130200  0.26745600  1
  H  199  1  0.75066600  0.89533900  0.23451200  1
  H  200  1  0.65578400  0.89459400  0.22280900  1
  H  201  1  0.64685200  0.91117500  0.25503700  1
  H  202  1  0.65391000  0.94955400  0.26893100  1
  H  203  1  0.74002900  0.94250900  0.29768900  1
  H  204  1  0.74984100  0.97858500  0.29274500  1
  H  205  1  0.66394600  0.98538500  0.26351000  1
  H  231  1  0.60113200  0.17832900  0.76044600  1
  H  232  1  0.65290500  0.17238800  0.76936100  1
  H  233  1  0.59569000  0.11774000  0.73477900  1
  H  234  1  0.64752100  0.11180500  0.74372200  1
  H  235  1  0.70279400  0.12501800  0.72740800  1
  H  236  1  0.72903000  0.14388400  0.70074400  1
  H  237  1  0.73857200  0.19506500  0.74173600  1
  H  238  1  0.71204600  0.17667600  0.76785600  1
  H  239  1  0.74139300  0.14429000  0.78835400  1
  H  240  1  0.75044900  0.16021000  0.82132800  1
  H  241  1  0.65550900  0.16105200  0.83282300  1
  H  242  1  0.64668700  0.14451500  0.80057100  1
  H  243  1  0.65379600  0.10611600  0.78670200  1
  H  244  1  0.74000000  0.11312600  0.75805300  1
  H  245  1  0.74975600  0.07704400  0.76299600  1
  H  246  1  0.66376800  0.07027800  0.79211100  1
  H  272  1  0.60120300  0.29531500  0.17835900  1
  H  273  1  0.65297400  0.28639100  0.17242700  1
  H  274  1  0.59574300  0.32086500  0.11771700  1
  H  275  1  0.64756400  0.31190900  0.11179300  1
  H  276  1  0.70277300  0.32830700  0.12505500  1
  H  277  1  0.72896600  0.35499700  0.14391200  1
  H  278  1  0.73864100  0.31402000  0.19509000  1
  H  279  1  0.71216200  0.28786700  0.17671000  1
  H  280  1  0.74148500  0.26738100  0.14433100  1
  H  281  1  0.75058800  0.23440300  0.16023200  1
  H  282  1  0.65565600  0.22286200  0.16112700  1
  H  283  1  0.64679000  0.25512300  0.14460200  1
  H  284  1  0.65394500  0.26892800  0.10616500  1
  H  285  1  0.74005200  0.29771400  0.11316900  1
  H  286  1  0.74983400  0.29276400  0.07709100  1
  H  287  1  0.66394800  0.26350800  0.07033100  1
  H  313  1  0.60113000  0.76038600  0.87734800  1
  H  314  1  0.65291700  0.76930500  0.88329400  1
  H  315  1  0.59565600  0.73483400  0.93799000  1
  H  316  1  0.64748000  0.74377900  0.94391800  1
  H  317  1  0.70267700  0.72739400  0.93066700  1
  H  318  1  0.72886100  0.70069400  0.91181600  1
  H  319  1  0.73854500  0.74165700  0.86062600  1
  H  320  1  0.71207300  0.76781800  0.87900000  1
  H  321  1  0.74142300  0.78829000  0.91137800  1
  H  322  1  0.75054500  0.82125000  0.89544500  1
  H  323  1  0.65563100  0.83284800  0.89459100  1
  H  324  1  0.64674000  0.80059500  0.91114700  1
  H  325  1  0.65387400  0.78675400  0.94956500  1
  H  326  1  0.73999300  0.75799300  0.94254000  1
  H  327  1  0.74980200  0.76295900  0.97861000  1
  H  328  1  0.66388900  0.79217800  0.98539300  1
  H  354  1  0.59979600  0.87528500  0.76274600  1
  H  355  1  0.65179000  0.88093500  0.77101000  1
  H  356  1  0.59543000  0.93486900  0.73477500  1
  H  357  1  0.64819300  0.93981100  0.74165300  1
  H  358  1  0.70770100  0.93357600  0.72919700  1
  H  359  1  0.73511100  0.91781300  0.70111600  1
  H  360  1  0.73234300  0.85995500  0.73259600  1
  H  361  1  0.70575500  0.87564300  0.76061500  1
  H  362  1  0.74214900  0.90211600  0.78355000  1
  H  363  1  0.75206100  0.88570600  0.81605100  1
  H  364  1  0.66054000  0.89604800  0.83415500  1
  H  365  1  0.65077400  0.91232200  0.80177000  1
  H  366  1  0.65015000  0.94714400  0.78311300  1
  H  367  1  0.74158700  0.93905500  0.76388600  1
  H  368  1  0.75129200  0.97498900  0.77062200  1
  H  369  1  0.65951900  0.98284900  0.78929600  1
  H  395  1  0.60000800  0.18049000  0.29327400  1
  H  396  1  0.65195300  0.17477400  0.28492500  1
  H  397  1  0.59531600  0.12064800  0.32066200  1
  H  398  1  0.64802800  0.11562400  0.31371500  1
  H  399  1  0.70723900  0.12217800  0.32656000  1
  H  400  1  0.73446900  0.13797300  0.35470800  1
  H  401  1  0.73262400  0.19566300  0.32288900  1
  H  402  1  0.70616800  0.17994800  0.29483600  1
  H  403  1  0.74218600  0.15324100  0.27194300  1
  H  404  1  0.75211800  0.16964800  0.23943700  1
  H  405  1  0.66038700  0.15982100  0.22154700  1
  H  406  1  0.65060300  0.14356000  0.25393800  1
  H  407  1  0.65039200  0.10852800  0.27224000  1
  H  408  1  0.74157600  0.11654000  0.29204100  1
  H  409  1  0.75133300  0.08061900  0.28531100  1
  H  410  1  0.65980000  0.07282500  0.26606600  1
  H  436  1  0.59996500  0.29324500  0.87522400  1
  H  437  1  0.65190500  0.28489900  0.88093800  1
  H  438  1  0.59531600  0.32071700  0.93503300  1
  H  439  1  0.64803300  0.31377900  0.94004500  1
  H  440  1  0.70734700  0.32653600  0.93352800  1
  H  441  1  0.73470500  0.35462900  0.91773500  1
  H  442  1  0.73263000  0.32285000  0.86002700  1
  H  443  1  0.70607700  0.29484000  0.87574400  1
  H  444  1  0.74212000  0.27192300  0.90242500  1
  H  445  1  0.75198800  0.23941000  0.88601700  1
  H  446  1  0.66026100  0.22156300  0.89593200  1
  H  447  1  0.65053900  0.25395800  0.91219700  1
  H  448  1  0.65031200  0.27231500  0.94719200  1
  H  449  1  0.74155800  0.29196900  0.93914900  1
  H  450  1  0.75131400  0.28523900  0.97506900  1
  H  451  1  0.65972400  0.26613200  0.98289600  1
  H  477  1  0.59975000  0.76298500  0.18031500  1
  H  478  1  0.65173300  0.77124500  0.17466600  1
  H  479  1  0.59554400  0.73463900  0.12090500  1
  H  480  1  0.64830000  0.74150800  0.11597100  1
  H  481  1  0.70796600  0.72925200  0.12199400  1
  H  482  1  0.73530100  0.70114100  0.13775900  1
  H  483  1  0.73201600  0.73241700  0.19571600  1
  H  484  1  0.70550100  0.76046500  0.18002700  1
  H  485  1  0.74220400  0.78340500  0.15375600  1
  H  486  1  0.75215000  0.81589100  0.17017800  1
  H  487  1  0.66083000  0.83422700  0.15943600  1
  H  488  1  0.65103000  0.80185900  0.14314300  1
  H  489  1  0.65008600  0.78293800  0.10845100  1
  H  490  1  0.74165400  0.76405000  0.11664900  1
  H  491  1  0.75138100  0.77078600  0.08071600  1
  H  492  1  0.65948400  0.78912700  0.07274500  1
  H  518  1  0.45638900  0.18041500  0.76279300  1
  H  519  1  0.40442600  0.17471600  0.77108300  1
  H  520  1  0.46083400  0.12085500  0.73478500  1
  H  521  1  0.40808700  0.11586600  0.74166400  1
  H  522  1  0.34851800  0.12199400  0.72922000  1
  H  523  1  0.32114800  0.13770900  0.70109500  1
  H  524  1  0.32405600  0.19565200  0.73241200  1
  H  525  1  0.35057300  0.18000200  0.76049000  1
  H  526  1  0.31404600  0.15362400  0.78345600  1
  H  527  1  0.30408200  0.17004700  0.81594700  1
  H  528  1  0.39551900  0.15957600  0.83417500  1
  H  529  1  0.40532600  0.14328100  0.80181300  1
  H  530  1  0.40609100  0.10847600  0.78308400  1
  H  531  1  0.31462600  0.11662500  0.76394700  1
  H  532  1  0.30488100  0.08070200  0.77069600  1
  H  533  1  0.39667500  0.07277400  0.78929300  1
  H  559  1  0.45640900  0.87531700  0.29296400  1
  H  560  1  0.40443500  0.88098300  0.28469100  1
  H  561  1  0.46080900  0.93488100  0.32096700  1
  H  562  1  0.40804000  0.93984800  0.31407800  1
  H  563  1  0.34857900  0.93357000  0.32654900  1
  H  564  1  0.32124000  0.91775100  0.35463500  1
  H  565  1  0.32387100  0.85997100  0.32300600  1
  H  566  1  0.35041400  0.87570800  0.29500600  1
  H  567  1  0.31409400  0.90225000  0.27208500  1
  H  568  1  0.30422800  0.88583300  0.23957400  1
  H  569  1  0.39582700  0.89607100  0.22158900  1
  H  570  1  0.40553800  0.91234500  0.25397200  1
  H  571  1  0.40610200  0.94718600  0.27259900  1
  H  572  1  0.31467700  0.93914000  0.29187400  1
  H  573  1  0.30501800  0.97508600  0.28518000  1
  H  574  1  0.39677500  0.98290600  0.26645300  1
  H  600  1  0.45634100  0.76257200  0.87524500  1
  H  601  1  0.40438000  0.77087700  0.88092200  1
  H  602  1  0.46085200  0.73485400  0.93494400  1
  H  603  1  0.40811000  0.74178100  0.93992800  1
  H  604  1  0.34882400  0.72911700  0.93350700  1
  H  605  1  0.32158900  0.70098300  0.91769100  1
  H  606  1  0.32374300  0.73274200  0.85997200  1
  H  607  1  0.35021500  0.76077400  0.87570100  1
  H  608  1  0.31407400  0.78366800  0.90233100  1
  H  609  1  0.30416800  0.81617800  0.88591900  1
  H  610  1  0.39584500  0.83410800  0.89591700  1
  H  611  1  0.40560000  0.80171700  0.91217800  1
  H  612  1  0.40600200  0.78327500  0.94711700  1
  H  613  1  0.31469500  0.76370700  0.93913500  1
  H  614  1  0.30503400  0.77039100  0.97508100  1
  H  615  1  0.39667900  0.78940400  0.98284000  1
  H  641  1  0.45643000  0.29296000  0.18040100  1
  H  642  1  0.40446400  0.28467800  0.17470200  1
  H  643  1  0.46091600  0.32088100  0.12079400  1
  H  644  1  0.40816100  0.31398900  0.11580600  1
  H  645  1  0.34872500  0.32651600  0.12206700  1
  H  646  1  0.32141800  0.35464100  0.13783700  1
  H  647  1  0.32398100  0.32310700  0.19567100  1
  H  648  1  0.35048000  0.29505300  0.17997800  1
  H  649  1  0.31413100  0.27214800  0.15348900  1
  H  650  1  0.30419400  0.23964900  0.16991100  1
  H  651  1  0.39571300  0.22152700  0.15959600  1
  H  652  1  0.40549900  0.25390500  0.14331200  1
  H  653  1  0.40609500  0.27253700  0.10847300  1
  H  654  1  0.31470600  0.29185800  0.11658100  1
  H  655  1  0.30497500  0.28514200  0.08064800  1
  H  656  1  0.39670200  0.26637200  0.07276600  1
  H  682  1  0.95370600  0.68032300  0.79888200  1
  H  683  1  0.90228900  0.67367600  0.78919800  1
  H  684  1  0.96135700  0.61877900  0.82188700  1
  H  685  1  0.91012000  0.61216400  0.81216300  1
  H  686  1  0.85498700  0.62576500  0.82879900  1
  H  687  1  0.82239300  0.64219000  0.85373300  1
  H  688  1  0.80699400  0.69157200  0.81138700  1
  H  689  1  0.84026800  0.67583400  0.78717100  1
  H  690  1  0.81715700  0.64269900  0.76570900  1
  H  691  1  0.80939300  0.65859600  0.73259000  1
  H  692  1  0.90485000  0.66347100  0.72473100  1
  H  693  1  0.91252100  0.64703900  0.75718800  1
  H  694  1  0.90467700  0.60721100  0.76943900  1
  H  695  1  0.81776000  0.61270300  0.79742000  1
  H  696  1  0.80928100  0.57659100  0.79221900  1
  H  697  1  0.89598900  0.57121500  0.76382400  1
  H  723  1  0.95374100  0.37546800  0.25691700  1
  H  724  1  0.90230100  0.38207700  0.26654800  1
  H  725  1  0.96134500  0.43700000  0.23387300  1
  H  726  1  0.91007200  0.44359600  0.24356700  1
  H  727  1  0.85495200  0.42999200  0.22695300  1
  H  728  1  0.82238800  0.41356600  0.20200600  1
  H  729  1  0.80702600  0.36415300  0.24432400  1
  H  730  1  0.84027100  0.37990100  0.26855600  1
  H  731  1  0.81713400  0.41302600  0.29004100  1
  H  732  1  0.80938300  0.39718500  0.32318900  1
  H  733  1  0.90485000  0.39233000  0.33103500  1
  H  734  1  0.91249800  0.40873000  0.29856100  1
  H  735  1  0.90463100  0.44854400  0.28630700  1
  H  736  1  0.81770800  0.44302400  0.25834900  1
  H  737  1  0.80918500  0.47912700  0.26358300  1
  H  738  1  0.89590500  0.48452900  0.29195600  1
  H  764  1  0.95373800  0.25684200  0.68022000  1
  H  765  1  0.90230500  0.26646700  0.67361400  1
  H  766  1  0.96135200  0.23379700  0.61869400  1
  H  767  1  0.91008400  0.24349500  0.61209400  1
  H  768  1  0.85492000  0.22690000  0.62570100  1
  H  769  1  0.82235000  0.20196700  0.64214300  1
  H  770  1  0.80705800  0.24429600  0.69155300  1
  H  771  1  0.84030700  0.26851300  0.67579400  1
  H  772  1  0.81718700  0.29001400  0.64267500  1
  H  773  1  0.80948400  0.32312600  0.65861000  1
  H  774  1  0.90496700  0.33091200  0.66344700  1
  H  775  1  0.91256500  0.29847100  0.64696800  1
  H  776  1  0.90467400  0.28624600  0.60716000  1
  H  777  1  0.81773500  0.25830400  0.61265000  1
  H  778  1  0.80926900  0.26349700  0.57653300  1
  H  779  1  0.89599600  0.29186900  0.57116400  1
  H  805  1  0.95370200  0.79884100  0.37538000  1
  H  806  1  0.90229900  0.78915500  0.38202900  1
  H  807  1  0.96135000  0.82187600  0.43691300  1
  H  808  1  0.91012000  0.81215400  0.44353600  1
  H  809  1  0.85496400  0.82878000  0.42994500  1
  H  810  1  0.82237000  0.85370900  0.41351100  1
  H  811  1  0.80701900  0.81136200  0.36412400  1
  H  812  1  0.84029400  0.78715000  0.37987100  1
  H  813  1  0.81714400  0.76569800  0.41300700  1
  H  814  1  0.80937000  0.73257100  0.39712100  1
  H  815  1  0.90482300  0.72470300  0.39224700  1
  H  816  1  0.91250500  0.75715800  0.40867400  1
  H  817  1  0.90468600  0.76943900  0.44851300  1
  H  818  1  0.81775300  0.79738400  0.44299300  1
  H  819  1  0.80925100  0.79218100  0.47910200  1
  H  820  1  0.89598200  0.76382200  0.48450900  1
  H  846  1  0.10248700  0.37548800  0.79871500  1
  H  847  1  0.15392900  0.38209300  0.78909300  1
  H  848  1  0.09491100  0.43698300  0.82183700  1
  H  849  1  0.14618800  0.44358500  0.81215100  1
  H  850  1  0.20129100  0.43001100  0.82878200  1
  H  851  1  0.23386200  0.41359200  0.85373300  1
  H  852  1  0.24918100  0.36414900  0.81144500  1
  H  853  1  0.21593100  0.37988500  0.78721000  1
  H  854  1  0.23920000  0.41304300  0.76576600  1
  H  855  1  0.24706800  0.39712100  0.73265400  1
  H  856  1  0.15163000  0.39225300  0.72467200  1
  H  857  1  0.14387000  0.40871100  0.75710300  1
  H  858  1  0.15165400  0.44854100  0.76938300  1
  H  859  1  0.23852000  0.44303700  0.79743300  1
  H  860  1  0.24701800  0.47915000  0.79224200  1
  H  861  1  0.16037400  0.48453900  0.76376000  1
  H  887  1  0.10250200  0.68020800  0.25693300  1
  H  888  1  0.15391200  0.67358100  0.26658400  1
  H  889  1  0.09489300  0.61872200  0.23378700  1
  H  890  1  0.14615700  0.61210000  0.24350100  1
  H  891  1  0.20131300  0.62569700  0.22692500  1
  H  892  1  0.23388700  0.64216300  0.20200700  1
  H  893  1  0.24918300  0.69153300  0.24438400  1
  H  894  1  0.21593000  0.67575300  0.26858600  1
  H  895  1  0.23905000  0.64258600  0.29005000  1
  H  896  1  0.24677800  0.65845100  0.32320300  1
  H  897  1  0.15130300  0.66334900  0.33097300  1
  H  898  1  0.14368400  0.64694300  0.29851500  1
  H  899  1  0.15154000  0.60711300  0.28624800  1
  H  900  1  0.23848800  0.61262300  0.25831600  1
  H  901  1  0.24696500  0.57650800  0.26350700  1
  H  902  1  0.16022900  0.57111500  0.29185700  1
  H  928  1  0.10262600  0.79884100  0.68027500  1
  H  929  1  0.15403000  0.78917700  0.67364000  1
  H  930  1  0.09495400  0.82186300  0.61874100  1
  H  931  1  0.14620300  0.81213100  0.61211400  1
  H  932  1  0.20131600  0.82877000  0.62576100  1
  H  933  1  0.23390100  0.85369700  0.64220000  1
  H  934  1  0.24940000  0.81129500  0.69151900  1
  H  935  1  0.21613700  0.78708200  0.67576700  1
  H  936  1  0.23910500  0.76560700  0.64261000  1
  H  937  1  0.24681700  0.73243200  0.65843200  1
  H  938  1  0.15133400  0.72472300  0.66342400  1
  H  939  1  0.14373500  0.75720300  0.64704600  1
  H  940  1  0.15164700  0.76939700  0.60717400  1
  H  941  1  0.23854900  0.79740000  0.61266400  1
  H  942  1  0.24703600  0.79219600  0.57655400  1
  H  943  1  0.16035100  0.76376800  0.57117600  1
  H  969  1  0.10255500  0.25691700  0.37543500  1
  H  970  1  0.15396700  0.26659100  0.38209900  1
  H  971  1  0.09488000  0.23383300  0.43694700  1
  H  972  1  0.14612300  0.24356200  0.44358800  1
  H  973  1  0.20128200  0.22695600  0.43000800  1
  H  974  1  0.23384800  0.20202100  0.41356000  1
  H  975  1  0.24920400  0.24437400  0.36417700  1
  H  976  1  0.21596300  0.26859500  0.37994000  1
  H  977  1  0.23909800  0.29003000  0.41310200  1
  H  978  1  0.24689700  0.32316500  0.39721900  1
  H  979  1  0.15143900  0.33103800  0.39230700  1
  H  980  1  0.14374900  0.29858000  0.40873600  1
  H  981  1  0.15156000  0.28629800  0.44856900  1
  H  982  1  0.23848500  0.25833700  0.44307100  1
  H  983  1  0.24698600  0.26356300  0.47917700  1
  H  984  1  0.16025200  0.29192500  0.48455900  1
  H  1010  1  0.10055000  0.37346100  0.25885800  1
  H  1011  1  0.15226400  0.37982600  0.26772300  1
  H  1012  1  0.09367900  0.43433600  0.23406900  1
  H  1013  1  0.14596500  0.44014500  0.24169900  1
  H  1014  1  0.20401900  0.43373500  0.22844000  1
  H  1015  1  0.23580400  0.41982700  0.20147800  1
  H  1016  1  0.24125000  0.36273700  0.23418300  1
  H  1017  1  0.20938900  0.37642200  0.26079000  1
  H  1018  1  0.24019000  0.40404100  0.28478200  1
  H  1019  1  0.24906900  0.38770000  0.31747100  1
  H  1020  1  0.15553300  0.39400500  0.33230300  1
  H  1021  1  0.14678300  0.41012700  0.29971400  1
  H  1022  1  0.14768900  0.44619900  0.28299100  1
  H  1023  1  0.23933800  0.43977200  0.26360200  1
  H  1024  1  0.24789000  0.47569000  0.27078300  1
  H  1025  1  0.15586700  0.48201200  0.28948300  1
  H  1051  1  0.10076800  0.68233500  0.79736400  1
  H  1052  1  0.15242800  0.67590600  0.78839700  1
  H  1053  1  0.09343600  0.62113800  0.82128900  1
  H  1054  1  0.14565000  0.61524000  0.81355900  1
  H  1055  1  0.20325600  0.62221100  0.82741100  1
  H  1056  1  0.23508200  0.63611200  0.85435900  1
  H  1057  1  0.24212400  0.69273500  0.82099300  1
  H  1058  1  0.21009400  0.67910700  0.79446700  1
  H  1059  1  0.24007100  0.65109900  0.77054800  1
  H  1060  1  0.24893000  0.66741300  0.73783500  1
  H  1061  1  0.15510700  0.66205800  0.72349000  1
  H  1062  1  0.14638100  0.64596700  0.75610100  1
  H  1063  1  0.14793200  0.60953000  0.77224800  1
  H  1064  1  0.23920500  0.61579800  0.79248900  1
  H  1065  1  0.24780300  0.57989500  0.78531700  1
  H  1066  1  0.15613400  0.57371500  0.76577600  1
  H  1092  1  0.10068500  0.79712700  0.37342900  1
  H  1093  1  0.15234200  0.78817500  0.37985100  1
  H  1094  1  0.09350700  0.82138900  0.43450000  1
  H  1095  1  0.14573500  0.81368400  0.44037900  1
  H  1096  1  0.20355000  0.82729600  0.43364600  1
  H  1097  1  0.23531200  0.85426700  0.41972900  1
  H  1098  1  0.24163800  0.82119300  0.36289700  1
  H  1099  1  0.20973700  0.79461300  0.37656400  1
  H  1100  1  0.24008500  0.77064900  0.40438600  1
  H  1101  1  0.24892700  0.73795500  0.38803800  1
  H  1102  1  0.15523000  0.72340700  0.39384600  1
  H  1103  1  0.14651900  0.75599900  0.40997100  1
  H  1104  1  0.14781700  0.77239000  0.44624200  1
  H  1105  1  0.23925100  0.79225300  0.43987900  1
  H  1106  1  0.24785600  0.78507400  0.47578400  1
  H  1107  1  0.15603500  0.76589600  0.48205600  1
  H  1133  1  0.10032700  0.25938300  0.68208300  1
  H  1134  1  0.15202800  0.26823300  0.67575100  1
  H  1135  1  0.09390600  0.23374700  0.62153800  1
  H  1136  1  0.14621800  0.24133700  0.61578800  1
  H  1137  1  0.20477900  0.22867200  0.62162200  1
  H  1138  1  0.23649100  0.20168600  0.63554400  1
  H  1139  1  0.24021500  0.23366700  0.69310600  1
  H  1140  1  0.20856600  0.26036800  0.67936000  1
  H  1141  1  0.24028100  0.28444400  0.65216300  1
  H  1142  1  0.24922400  0.31710200  0.66852800  1
  H  1143  1  0.15602900  0.33248400  0.66125800  1
  H  1144  1  0.14721900  0.29993100  0.64508800  1
  H  1145  1  0.14742600  0.28258900  0.60936000  1
  H  1146  1  0.23943100  0.26409500  0.61600200  1
  H  1147  1  0.24799100  0.27129200  0.58007900  1
  H  1148  1  0.15563000  0.28912100  0.57354900  1
  H  1174  1  0.95566600  0.68219400  0.25891000  1
  H  1175  1  0.90398900  0.67579500  0.26781300  1
  H  1176  1  0.96257900  0.62134400  0.23407900  1
  H  1177  1  0.91031000  0.61549800  0.24172300  1
  H  1178  1  0.85221600  0.62182300  0.22848600  1
  H  1179  1  0.82049000  0.63571900  0.20148600  1
  H  1180  1  0.81515200  0.69287300  0.23408600  1
  H  1181  1  0.84694100  0.67919600  0.26073700  1
  H  1182  1  0.81602600  0.65163300  0.28475200  1
  H  1183  1  0.80711300  0.66798900  0.31743000  1
  H  1184  1  0.90061000  0.66160200  0.33234400  1
  H  1185  1  0.90938300  0.64545100  0.29977800  1
  H  1186  1  0.90858300  0.60939400  0.28298700  1
  H  1187  1  0.81690100  0.61587300  0.26369700  1
  H  1188  1  0.80831200  0.57996600  0.27090000  1
  H  1189  1  0.90036400  0.57358500  0.28951300  1
  H  1215  1  0.95573300  0.37352800  0.79673000  1
  H  1216  1  0.90404400  0.37989800  0.78786400  1
  H  1217  1  0.96254700  0.43431900  0.82172400  1
  H  1218  1  0.91024800  0.44013700  0.81409300  1
  H  1219  1  0.85214300  0.43379900  0.82725200  1
  H  1220  1  0.82037400  0.41985100  0.85420300  1
  H  1221  1  0.81514700  0.36274700  0.82151000  1
  H  1222  1  0.84698200  0.37647000  0.79491600  1
  H  1223  1  0.81607000  0.40407800  0.77092200  1
  H  1224  1  0.80720600  0.38771000  0.73824100  1
  H  1225  1  0.90073400  0.39408700  0.72340200  1
  H  1226  1  0.90945600  0.41023700  0.75597300  1
  H  1227  1  0.90864700  0.44626100  0.77278000  1
  H  1228  1  0.81694300  0.43985000  0.79205200  1
  H  1229  1  0.80844500  0.47578200  0.78491100  1
  H  1230  1  0.90051500  0.48208700  0.76631800  1
  H  1256  1  0.95563900  0.25869400  0.37341900  1
  H  1257  1  0.90395900  0.26759600  0.37980400  1
  H  1258  1  0.96265000  0.23413400  0.43438000  1
  H  1259  1  0.91039000  0.24181500  0.44022600  1
  H  1260  1  0.85254700  0.22835100  0.43358700  1
  H  1261  1  0.82070700  0.20142500  0.41965700  1
  H  1262  1  0.81458300  0.23448700  0.36280800  1
  H  1263  1  0.84656900  0.26101600  0.37648400  1
  H  1264  1  0.81612200  0.28495500  0.40430900  1
  H  1265  1  0.80725700  0.31765600  0.38797800  1
  H  1266  1  0.90093900  0.33224500  0.39383400  1
  H  1267  1  0.90966600  0.29964700  0.40993700  1
  H  1268  1  0.90853500  0.28314400  0.44615300  1
  H  1269  1  0.81701600  0.26342900  0.43984800  1
  H  1270  1  0.80851500  0.27056300  0.47577900  1
  H  1271  1  0.90041600  0.28958300  0.48198600  1
  H  1297  1  0.95579400  0.79664400  0.68217200  1
  H  1298  1  0.90410800  0.78777500  0.67577300  1
  H  1299  1  0.96263400  0.82168200  0.62139600  1
  H  1300  1  0.91034900  0.81405400  0.61556500  1
  H  1301  1  0.85217500  0.82719700  0.62183900  1
  H  1302  1  0.82044900  0.85417300  0.63578100  1
  H  1303  1  0.81538500  0.82159200  0.69295600  1
  H  1304  1  0.84714700  0.79495300  0.67923000  1
  H  1305  1  0.81610000  0.77099600  0.65168600  1
  H  1306  1  0.80716500  0.73832200  0.66804400  1
  H  1307  1  0.90060600  0.72330400  0.66150800  1
  H  1308  1  0.90940500  0.75587600  0.64536100  1
  H  1309  1  0.90868600  0.77277600  0.60938200  1
  H  1310  1  0.81697400  0.79199700  0.61588100  1
  H  1311  1  0.80840600  0.78484300  0.57995600  1
  H  1312  1  0.90048900  0.76630200  0.57356500  1
  H  1319  1  0.31635600  0.22239200  0.20310800  1
  H  1323  1  0.35231900  0.13582500  0.18643000  1
  H  1330  1  0.31644900  0.83334100  0.85259400  1
  H  1334  1  0.35228900  0.91999000  0.86929700  1
  H  1341  1  0.31646500  0.85260500  0.22237300  1
  H  1345  1  0.35246000  0.86937200  0.13581200  1
  H  1352  1  0.31632100  0.20319900  0.83323700  1
  H  1356  1  0.35201500  0.18643600  0.91985600  1
  H  1363  1  0.73984900  0.83323100  0.20327200  1
  H  1367  1  0.70433800  0.91989500  0.18643300  1
  H  1374  1  0.73983800  0.22226600  0.85269600  1
  H  1378  1  0.70379500  0.13572500  0.86936900  1
  H  1385  1  0.73989900  0.20303000  0.22230500  1
  H  1389  1  0.70384000  0.18644900  0.13566700  1
  H  1396  1  0.73984900  0.85250500  0.83332700  1
  H  1400  1  0.70397300  0.86926600  0.91994000  1
  H  1407  1  0.81812600  0.72162100  0.70196800  1
  H  1411  1  0.86045100  0.63622200  0.68650100  1
  H  1418  1  0.81827700  0.33416900  0.35381200  1
  H  1422  1  0.86068900  0.41962100  0.36922200  1
  H  1429  1  0.81822900  0.35372100  0.72161900  1
  H  1433  1  0.86060900  0.36926100  0.63622200  1
  H  1440  1  0.81811200  0.70196100  0.33408900  1
  H  1444  1  0.86044400  0.68648500  0.41949600  1
  H  1451  1  0.23812200  0.33399400  0.70222900  1
  H  1455  1  0.19616300  0.41948800  0.68651500  1
  H  1462  1  0.23802400  0.72144600  0.35387900  1
  H  1466  1  0.19551400  0.63610100  0.36929700  1
  H  1473  1  0.23802400  0.70173400  0.72142400  1
  H  1477  1  0.19525300  0.68649300  0.63602300  1
  H  1484  1  0.23807900  0.35368900  0.33414400  1
  H  1488  1  0.19569500  0.36924100  0.41956000  1
  H  1495  1  0.32340100  0.04173900  0.30528700  1
  H  1499  1  0.33615200  0.99082700  0.22983100  1
  H  1506  1  0.32337800  0.01401700  0.75049800  1
  H  1510  1  0.33606800  0.06498800  0.82598200  1
  H  1517  1  0.32351000  0.75036900  0.04170800  1
  H  1521  1  0.33581600  0.82593700  0.99089100  1
  H  1528  1  0.32340100  0.30525100  0.01397700  1
  H  1532  1  0.33605800  0.22976200  0.06488500  1
  H  1539  1  0.73271900  0.01400500  0.30529600  1
  H  1543  1  0.72062800  0.06487600  0.22972900  1
  H  1550  1  0.73282700  0.04165200  0.75046600  1
  H  1554  1  0.72010300  0.99078200  0.82596000  1
  H  1561  1  0.73270300  0.30529100  0.04169600  1
  H  1565  1  0.72050300  0.22972600  0.99079600  1
  H  1572  1  0.73293900  0.75049400  0.01403000  1
  H  1576  1  0.71995900  0.82596500  0.06498900  1
  H  1583  1  0.82625800  0.54166900  0.80472600  1
  H  1587  1  0.84192700  0.49137500  0.72929400  1
  H  1594  1  0.82623100  0.51406100  0.25106500  1
  H  1598  1  0.84180600  0.56443500  0.32653300  1
  H  1605  1  0.82641400  0.25091000  0.54163300  1
  H  1609  1  0.84158200  0.32645400  0.49140000  1
  H  1616  1  0.82624200  0.80469800  0.51404100  1
  H  1620  1  0.84191300  0.72924100  0.56434200  1
  H  1627  1  0.22973400  0.51407800  0.80482500  1
  H  1631  1  0.21502300  0.56436000  0.72925200  1
  H  1638  1  0.22997200  0.54158000  0.25098100  1
  H  1642  1  0.21446100  0.49131200  0.32646300  1
  H  1649  1  0.22981800  0.80474800  0.54162700  1
  H  1653  1  0.21481300  0.72918000  0.49134000  1
  H  1660  1  0.23019300  0.25114200  0.51413600  1
  H  1664  1  0.21390400  0.32655800  0.56449000  1
  H  1671  1  0.50432200  0.13755100  0.33999000  1
  H  1675  1  0.56932900  0.13855600  0.26303800  1
  H  1682  1  0.50424600  0.91787200  0.71568300  1
  H  1686  1  0.56995500  0.91757600  0.79258700  1
  H  1693  1  0.50435400  0.71555300  0.13798900  1
  H  1697  1  0.56954100  0.79267500  0.13777900  1
  H  1704  1  0.50427200  0.33998800  0.91810500  1
  H  1708  1  0.56942700  0.26309000  0.91723900  1
  H  1715  1  0.55199500  0.91781900  0.34003400  1
  H  1719  1  0.48617900  0.91762400  0.26315400  1
  H  1726  1  0.55193800  0.13778900  0.71566900  1
  H  1730  1  0.48682600  0.13821000  0.79264400  1
  H  1737  1  0.55199900  0.34002000  0.13773700  1
  H  1741  1  0.48661800  0.26310100  0.13824900  1
  H  1748  1  0.55195100  0.71565600  0.91796600  1
  H  1752  1  0.48633000  0.79257200  0.91736500  1
  H  1759  1  0.00380700  0.63830500  0.84206800  1
  H  1763  1  0.06830000  0.64221900  0.76517000  1
  H  1770  1  0.00381400  0.41711300  0.21362100  1
  H  1774  1  0.06886500  0.41399700  0.29055600  1
  H  1781  1  0.00390100  0.21346700  0.63882900  1
  H  1785  1  0.06837700  0.29067100  0.64110300  1
  H  1792  1  0.00381500  0.84207200  0.41731300  1
  H  1796  1  0.06825900  0.76514600  0.41369700  1
  H  1803  1  0.05244500  0.41703100  0.84210300  1
  H  1807  1  0.98734000  0.41415000  0.76516500  1
  H  1814  1  0.05238600  0.63852200  0.21360300  1
  H  1818  1  0.98791500  0.64170400  0.29059600  1
  H  1825  1  0.05245200  0.84210400  0.63859000  1
  H  1829  1  0.98778300  0.76513900  0.64161600  1
  H  1836  1  0.05244000  0.21359300  0.41715900  1
  H  1840  1  0.98743100  0.29051400  0.41383600  1
  H  1847  1  0.23937900  0.17932400  0.37833200  1
  H  1851  1  0.36875700  0.19381300  0.36078500  1
  H  1858  1  0.23946100  0.87634200  0.67744100  1
  H  1862  1  0.36895600  0.86196000  0.69497500  1
  H  1869  1  0.23939500  0.67739700  0.17932500  1
  H  1873  1  0.36881900  0.69487500  0.19388600  1
  H  1880  1  0.23938800  0.37828600  0.87643800  1
  H  1884  1  0.36883900  0.36085300  0.86193600  1
  H  1891  1  0.81680800  0.87639600  0.37823000  1
  H  1895  1  0.68731300  0.86192500  0.36079900  1
  H  1902  1  0.81685600  0.17926800  0.67739300  1
  H  1906  1  0.68749100  0.19375500  0.69494300  1
  H  1913  1  0.81687900  0.37828000  0.17931500  1
  H  1917  1  0.68739900  0.36068700  0.19376100  1
  H  1924  1  0.81681200  0.67744900  0.87643300  1
  H  1928  1  0.68734000  0.69496400  0.86194100  1
  H  1935  1  0.82551400  0.87802700  0.68319500  1
  H  1939  1  0.69115700  0.87589000  0.68114500  1
  H  1946  1  0.82500000  0.17762000  0.37287100  1
  H  1950  1  0.69061100  0.18023900  0.37411900  1
  H  1957  1  0.82526900  0.37271000  0.87811900  1
  H  1961  1  0.69088800  0.37433700  0.87561500  1
  H  1968  1  0.82543100  0.68316100  0.17767700  1
  H  1972  1  0.69105200  0.68104200  0.17970000  1
  H  1979  1  0.23062300  0.17774400  0.68354000  1
  H  1983  1  0.36508200  0.17933600  0.68091800  1
  H  1990  1  0.23099700  0.87803800  0.37282700  1
  H  1994  1  0.36529400  0.87559600  0.37435800  1
  H  2001  1  0.23128000  0.68270000  0.87807700  1
  H  2005  1  0.36568000  0.68162600  0.87532400  1
  H  2012  1  0.23100200  0.37254000  0.17764100  1
  H  2016  1  0.36541700  0.37444300  0.17986300  1
  C  1  1  0.34862500  0.06995400  0.27802400  1
  C  2  1  0.32706900  0.08299300  0.28801500  1
  C  3  1  0.33310900  0.10435500  0.29116000  1
  C  4  1  0.36145600  0.11347400  0.28539100  1
  C  5  1  0.38209300  0.10037600  0.27434800  1
  C  6  1  0.37601900  0.07915000  0.27085800  1
  C  7  1  0.36879800  0.13661700  0.28811100  1
  C  8  1  0.36338700  0.14437900  0.26577100  1
  C  9  1  0.38742700  0.14781600  0.25127600  1
  C  10  1  0.38215700  0.15702800  0.23170000  1
  C  11  1  0.35227300  0.16224600  0.22521200  1
  C  12  1  0.32779600  0.15673700  0.23849800  1
  C  13  1  0.33326000  0.14741100  0.25804200  1
  C  14  1  0.34975600  0.14810400  0.30449300  1
  C  15  1  0.40102000  0.14080500  0.29645800  1
  C  16  1  0.41481500  0.16074100  0.29391000  1
  C  17  1  0.44547100  0.16436000  0.29926200  1
  C  18  1  0.46313900  0.14859800  0.30883600  1
  C  19  1  0.44852300  0.12966900  0.31414900  1
  C  20  1  0.41800600  0.12599800  0.30824200  1
  C  21  1  0.34533300  0.13963400  0.32481100  1
  C  22  1  0.32995900  0.15072300  0.34063600  1
  C  23  1  0.31986400  0.17133400  0.33709500  1
  C  24  1  0.32474400  0.18023100  0.31721900  1
  C  25  1  0.33985500  0.16902100  0.30151100  1
  C  42  1  0.34853800  0.98579600  0.77776000  1
  C  43  1  0.32699200  0.97275500  0.76776200  1
  C  44  1  0.33304300  0.95139500  0.76460900  1
  C  45  1  0.36139900  0.94228000  0.77036500  1
  C  46  1  0.38201800  0.95537900  0.78142500  1
  C  47  1  0.37593000  0.97660000  0.78493000  1
  C  48  1  0.36874300  0.91913900  0.76764600  1
  C  49  1  0.36330700  0.91136100  0.78997800  1
  C  50  1  0.38732900  0.90795100  0.80449700  1
  C  51  1  0.38204300  0.89874500  0.82407300  1
  C  52  1  0.35215700  0.89350900  0.83053700  1
  C  53  1  0.32768800  0.89900100  0.81723700  1
  C  54  1  0.33317300  0.90831200  0.79768700  1
  C  55  1  0.34972600  0.90765400  0.75125300  1
  C  56  1  0.40097800  0.91496500  0.75931800  1
  C  57  1  0.41480600  0.89504200  0.76189400  1
  C  58  1  0.44546700  0.89143200  0.75654300  1
  C  59  1  0.46311200  0.90720100  0.74696500  1
  C  60  1  0.44848900  0.92612800  0.74165900  1
  C  61  1  0.41794500  0.92976900  0.74751400  1
  C  62  1  0.34532200  0.91612500  0.73093200  1
  C  63  1  0.33002500  0.90502300  0.71507800  1
  C  64  1  0.31997600  0.88439800  0.71859600  1
  C  65  1  0.32485400  0.87549100  0.73846700  1
  C  66  1  0.33989600  0.88671400  0.75419700  1
  C  83  1  0.34862300  0.77767700  0.06992100  1
  C  84  1  0.32706700  0.76769300  0.08296300  1
  C  85  1  0.33311400  0.76455500  0.10432500  1
  C  86  1  0.36147200  0.77030700  0.11343800  1
  C  87  1  0.38210300  0.78135000  0.10033300  1
  C  88  1  0.37600800  0.78486100  0.07911400  1
  C  89  1  0.36882100  0.76759600  0.13657900  1
  C  90  1  0.36344400  0.78993900  0.14434300  1
  C  91  1  0.38750500  0.80442300  0.14776600  1
  C  92  1  0.38227600  0.82399300  0.15699800  1
  C  93  1  0.35240300  0.83048100  0.16224800  1
  C  94  1  0.32789600  0.81722900  0.15672500  1
  C  95  1  0.33333333  0.79768700  0.14738500  1
  C  96  1  0.34976000  0.75123100  0.14807400  1
  C  97  1  0.40103600  0.75923300  0.14075900  1
  C  98  1  0.41484700  0.76178800  0.16068800  1
  C  99  1  0.44549400  0.75641500  0.16430900  1
  C  100  1  0.46314800  0.74684100  0.14854100  1
  C  101  1  0.44853000  0.74154000  0.12961200  1
  C  102  1  0.41799900  0.74743200  0.12595500  1
  C  103  1  0.34532600  0.73090500  0.13962400  1
  C  104  1  0.32996600  0.71508300  0.15073000  1
  C  105  1  0.31988700  0.71863800  0.17134200  1
  C  106  1  0.32479900  0.73851300  0.18023000  1
  C  107  1  0.33990500  0.75421200  0.16900300  1
  C  124  1  0.34859100  0.27798900  0.98576000  1
  C  125  1  0.32703100  0.28796400  0.97271200  1
  C  126  1  0.33308400  0.29111000  0.95135300  1
  C  127  1  0.36144500  0.28535500  0.94224400  1
  C  128  1  0.38208900  0.27433100  0.95535200  1
  C  129  1  0.37599900  0.27083300  0.97657400  1
  C  130  1  0.36878000  0.28808200  0.91910100  1
  C  131  1  0.36331300  0.26575200  0.91133200  1
  C  132  1  0.38731600  0.25121500  0.90794600  1
  C  133  1  0.38201100  0.23166100  0.89869800  1
  C  134  1  0.35212200  0.22521700  0.89343700  1
  C  135  1  0.32767500  0.23854200  0.89890900  1
  C  136  1  0.33317100  0.25807000  0.90825900  1
  C  137  1  0.34977400  0.30449500  0.90763200  1
  C  138  1  0.40101500  0.29639900  0.91491400  1
  C  139  1  0.41482600  0.29381300  0.89498900  1
  C  140  1  0.44547600  0.29918000  0.89136200  1
  C  141  1  0.46313200  0.30878900  0.90710900  1
  C  142  1  0.44850100  0.31412600  0.92602600  1
  C  143  1  0.41797400  0.30823500  0.92969400  1
  C  144  1  0.34534200  0.32480300  0.91612100  1
  C  145  1  0.33002800  0.34065400  0.90502800  1
  C  146  1  0.31995600  0.33713700  0.88440900  1
  C  147  1  0.32486000  0.31727500  0.87548700  1
  C  148  1  0.33994200  0.30155200  0.88669200  1
  C  165  1  0.70769900  0.98576800  0.27798000  1
  C  166  1  0.72923300  0.97272500  0.28798400  1
  C  167  1  0.72317800  0.95136400  0.29112400  1
  C  168  1  0.69483100  0.94225300  0.28534200  1
  C  169  1  0.67420300  0.95536100  0.27430400  1
  C  170  1  0.68029700  0.97658500  0.27081100  1
  C  171  1  0.68748600  0.91911200  0.28806500  1
  C  172  1  0.69297600  0.91134400  0.26573600  1
  C  173  1  0.66899000  0.90796300  0.25118400  1
  C  174  1  0.67431200  0.89875200  0.23161200  1
  C  175  1  0.70421000  0.89345900  0.22520700  1
  C  176  1  0.72864600  0.89892700  0.23853900  1
  C  177  1  0.72312500  0.90824800  0.25807600  1
  C  178  1  0.70646300  0.90763100  0.30448600  1
  C  179  1  0.65523800  0.91494300  0.29636800  1
  C  180  1  0.64139200  0.89503100  0.29375500  1
  C  181  1  0.61073300  0.89142600  0.29910600  1
  C  182  1  0.59310200  0.90717800  0.30873100  1
  C  183  1  0.60775200  0.92608700  0.31406500  1
  C  184  1  0.63830300  0.92972400  0.30821700  1
  C  185  1  0.71089700  0.91611400  0.32479500  1
  C  186  1  0.72618400  0.90500800  0.34064900  1
  C  187  1  0.73622800  0.88438200  0.33713400  1
  C  188  1  0.73131200  0.87546300  0.31727200  1
  C  189  1  0.71625800  0.88668200  0.30154400  1
  C  206  1  0.70756600  0.06987500  0.77770500  1
  C  207  1  0.72914900  0.08291400  0.76774300  1
  C  208  1  0.72312300  0.10427700  0.76459500  1
  C  209  1  0.69476700  0.11339900  0.77034100  1
  C  210  1  0.67409800  0.10030000  0.78135300  1
  C  211  1  0.68016000  0.07907400  0.78485000  1
  C  212  1  0.68745000  0.13654600  0.76762800  1
  C  213  1  0.69285900  0.14429600  0.78997000  1
  C  214  1  0.66881800  0.14769400  0.80447500  1
  C  215  1  0.67407900  0.15689000  0.82406000  1
  C  216  1  0.70395900  0.16212800  0.83055000  1
  C  217  1  0.72843900  0.15664400  0.81725700  1
  C  218  1  0.72298100  0.14735300  0.79769800  1
  C  219  1  0.70650400  0.14802200  0.75124600  1
  C  220  1  0.65523500  0.14074800  0.75927700  1
  C  221  1  0.64145400  0.16068800  0.76183500  1
  C  222  1  0.61079000  0.16430900  0.75649400  1
  C  223  1  0.59312700  0.14855900  0.74689300  1
  C  224  1  0.60774300  0.12963500  0.74156800  1
  C  225  1  0.63827100  0.12596700  0.74744600  1
  C  226  1  0.71095600  0.13955700  0.73093000  1
  C  227  1  0.72632800  0.15065400  0.71510800  1
  C  228  1  0.73638100  0.17127500  0.71864900  1
  C  229  1  0.73146800  0.18017200  0.73851900  1
  C  230  1  0.71636100  0.16895100  0.75422400  1
  C  247  1  0.70769900  0.27798100  0.06992800  1
  C  248  1  0.72924500  0.28798400  0.08296300  1
  C  249  1  0.72320300  0.29113500  0.10432300  1
  C  250  1  0.69486500  0.28535000  0.11344500  1
  C  251  1  0.67424100  0.27429000  0.10035200  1
  C  252  1  0.68032500  0.27078600  0.07912900  1
  C  253  1  0.68752300  0.28807500  0.13658800  1
  C  254  1  0.69295300  0.26574100  0.14436000  1
  C  255  1  0.66892100  0.25123800  0.14780300  1
  C  256  1  0.67420700  0.23164400  0.15697000  1
  C  257  1  0.70409800  0.22518100  0.16219800  1
  C  258  1  0.72856600  0.23848000  0.15670500  1
  C  259  1  0.72308800  0.25801700  0.14737200  1
  C  260  1  0.70655000  0.30447500  0.14806100  1
  C  261  1  0.65529200  0.29641100  0.14076600  1
  C  262  1  0.64151300  0.29388600  0.16071100  1
  C  263  1  0.61084700  0.29922500  0.16432300  1
  C  264  1  0.59318000  0.30880300  0.14856100  1
  C  265  1  0.60778200  0.31407400  0.12961900  1
  C  266  1  0.63831700  0.30820500  0.12596000  1
  C  267  1  0.71094700  0.32479500  0.13959500  1
  C  268  1  0.72626100  0.34064100  0.15069500  1
  C  269  1  0.73637400  0.33710300  0.17130100  1
  C  270  1  0.73151300  0.31722700  0.18020100  1
  C  271  1  0.71643600  0.30150500  0.16898500  1
  C  288  1  0.70765500  0.77772200  0.98579100  1
  C  289  1  0.72920400  0.76772900  0.97274800  1
  C  290  1  0.72314300  0.76456600  0.95139100  1
  C  291  1  0.69479400  0.77033800  0.94227600  1
  C  292  1  0.67416600  0.78138600  0.95537700  1
  C  293  1  0.68026300  0.78489600  0.97659700  1
  C  294  1  0.68744700  0.76761800  0.91913600  1
  C  295  1  0.69289100  0.78995200  0.91136600  1
  C  296  1  0.66887100  0.80446400  0.90792800  1
  C  297  1  0.67416800  0.82403500  0.89871200  1
  C  298  1  0.70406400  0.83048900  0.89348400  1
  C  299  1  0.72852300  0.81718700  0.89898500  1
  C  300  1  0.72303400  0.79766100  0.90833800  1
  C  301  1  0.70646300  0.75121800  0.90765100  1
  C  302  1  0.65521200  0.75929300  0.91495400  1
  C  303  1  0.64141900  0.76184700  0.89501700  1
  C  304  1  0.61076700  0.75648200  0.89138900  1
  C  305  1  0.59309800  0.74690900  0.90714800  1
  C  306  1  0.60769500  0.74163100  0.92609200  1
  C  307  1  0.63823000  0.74749600  0.92975400  1
  C  308  1  0.71085800  0.73090100  0.91612800  1
  C  309  1  0.72617900  0.71505300  0.90503400  1
  C  310  1  0.73627400  0.71858100  0.88442100  1
  C  311  1  0.73141500  0.73845500  0.87551600  1
  C  312  1  0.71636600  0.75418800  0.88673200  1
  C  329  1  0.70647600  0.98250400  0.78077200  1
  C  330  1  0.72975700  0.96928200  0.77314900  1
  C  331  1  0.72382400  0.94809400  0.76893500  1
  C  332  1  0.69406800  0.93945300  0.77096800  1
  C  333  1  0.67158500  0.95264900  0.78001900  1
  C  334  1  0.67730000  0.97378200  0.78425700  1
  C  335  1  0.68748900  0.91643300  0.76669900  1
  C  336  1  0.69460700  0.90730600  0.78823100  1
  C  337  1  0.67231600  0.90673800  0.80434800  1
  C  338  1  0.67823200  0.89739600  0.82378400  1
  C  339  1  0.70712100  0.88860300  0.82826500  1
  C  340  1  0.73048500  0.89117300  0.81323600  1
  C  341  1  0.72450000  0.90080900  0.79391800  1
  C  342  1  0.70579100  0.90678000  0.74885100  1
  C  343  1  0.65498400  0.91193000  0.75914300  1
  C  344  1  0.64048300  0.89250200  0.76319800  1
  C  345  1  0.60958200  0.88911800  0.75836300  1
  C  346  1  0.59182800  0.90500800  0.74904000  1
  C  347  1  0.60720400  0.92307500  0.74196200  1
  C  348  1  0.63835800  0.92615900  0.74646400  1
  C  349  1  0.71346700  0.91817100  0.73052100  1
  C  350  1  0.72940700  0.90890700  0.71380600  1
  C  351  1  0.73640400  0.88742400  0.71419800  1
  C  352  1  0.72746800  0.87557400  0.73172700  1
  C  353  1  0.71212600  0.88502300  0.74846900  1
  C  370  1  0.70664800  0.07313500  0.27487300  1
  C  371  1  0.72983900  0.08633800  0.28265300  1
  C  372  1  0.72387200  0.10752400  0.28685500  1
  C  373  1  0.69415000  0.11618000  0.28466300  1
  C  374  1  0.67179000  0.10301100  0.27543200  1
  C  375  1  0.67753600  0.08188100  0.27120200  1
  C  376  1  0.68750000  0.13919200  0.28891800  1
  C  377  1  0.69455900  0.14833000  0.26738100  1
  C  378  1  0.67219000  0.14904200  0.25132000  1
  C  379  1  0.67811100  0.15837100  0.23187800  1
  C  380  1  0.70707500  0.16701200  0.22734300  1
  C  381  1  0.73049700  0.16429300  0.24230200  1
  C  382  1  0.72450300  0.15465600  0.26161700  1
  C  383  1  0.70580700  0.14886800  0.30674800  1
  C  384  1  0.65498900  0.14365600  0.29648500  1
  C  385  1  0.64058300  0.16315500  0.29261700  1
  C  386  1  0.60970500  0.16657800  0.29749800  1
  C  387  1  0.59186200  0.15065600  0.30668700  1
  C  388  1  0.60713100  0.13245100  0.31352000  1
  C  389  1  0.63826900  0.12933500  0.30900100  1
  C  390  1  0.71317700  0.13755000  0.32518400  1
  C  391  1  0.72900700  0.14683300  0.34193700  1
  C  392  1  0.73622400  0.16828000  0.34146100  1
  C  393  1  0.72761400  0.18006600  0.32381200  1
  C  394  1  0.71235900  0.17059500  0.30704800  1
  C  411  1  0.70659300  0.27488000  0.98257000  1
  C  412  1  0.72980700  0.28261700  0.96935800  1
  C  413  1  0.72384000  0.28682100  0.94817300  1
  C  414  1  0.69410400  0.28467700  0.93952500  1
  C  415  1  0.67171500  0.27549600  0.95270900  1
  C  416  1  0.67746500  0.27124700  0.97383400  1
  C  417  1  0.68746600  0.28892600  0.91651100  1
  C  418  1  0.69449900  0.26738100  0.90738600  1
  C  419  1  0.67211700  0.25132700  0.90670200  1
  C  420  1  0.67800200  0.23188100  0.89737200  1
  C  421  1  0.70694700  0.22732800  0.88870800  1
  C  422  1  0.73038000  0.24228200  0.89139600  1
  C  423  1  0.72442500  0.26160300  0.90103500  1
  C  424  1  0.70580000  0.30674000  0.90683000  1
  C  425  1  0.65496800  0.29651100  0.91203600  1
  C  426  1  0.64055100  0.29262300  0.89254400  1
  C  427  1  0.60968700  0.29753400  0.88910700  1
  C  428  1  0.59185000  0.30671800  0.90503600  1
  C  429  1  0.60713300  0.31359500  0.92321900  1
  C  430  1  0.63826700  0.30905900  0.92633900  1
  C  431  1  0.71325400  0.32515600  0.91815200  1
  C  432  1  0.72915600  0.34187900  0.90886900  1
  C  433  1  0.73634500  0.34139700  0.88741900  1
  C  434  1  0.72763700  0.32377700  0.87562400  1
  C  435  1  0.71231800  0.30703900  0.88509600  1
  C  452  1  0.70649700  0.78075200  0.07315000  1
  C  453  1  0.72981600  0.77323600  0.08639900  1
  C  454  1  0.72387200  0.76903900  0.10759000  1
  C  455  1  0.69407700  0.77095500  0.11619600  1
  C  456  1  0.67154800  0.77989900  0.10296600  1
  C  457  1  0.67728000  0.78415400  0.08183900  1
  C  458  1  0.68753900  0.76669100  0.13922300  1
  C  459  1  0.69473900  0.78820900  0.14835600  1
  C  460  1  0.67255300  0.80439800  0.14878300  1
  C  461  1  0.67847900  0.82381200  0.15816800  1
  C  462  1  0.70730100  0.82821800  0.16709600  1
  C  463  1  0.73060400  0.81312500  0.16463400  1
  C  464  1  0.72460100  0.79381900  0.15498000  1
  C  465  1  0.70580500  0.74881200  0.14884800  1
  C  466  1  0.65501400  0.75918600  0.14374600  1
  C  467  1  0.64046000  0.76336800  0.16312700  1
  C  468  1  0.60956400  0.75852900  0.16651500  1
  C  469  1  0.59185500  0.74909600  0.15066800  1
  C  470  1  0.60728400  0.74190700  0.13266400  1
  C  471  1  0.63845600  0.74637000  0.12960100  1
  C  472  1  0.71360400  0.73052700  0.13742600  1
  C  473  1  0.72947100  0.71378200  0.14669400  1
  C  474  1  0.73630800  0.71410600  0.16820300  1
  C  475  1  0.72725500  0.73159100  0.18007800  1
  C  476  1  0.71195400  0.74835000  0.17063000  1
  C  493  1  0.34971200  0.07315300  0.78079100  1
  C  494  1  0.32643200  0.08639100  0.77319600  1
  C  495  1  0.33238700  0.10757700  0.76898600  1
  C  496  1  0.36216700  0.11619500  0.77097400  1
  C  497  1  0.38465000  0.10298100  0.77999700  1
  C  498  1  0.37890700  0.08185500  0.78425200  1
  C  499  1  0.36873200  0.13921700  0.76669500  1
  C  500  1  0.36155200  0.14836100  0.78821100  1
  C  501  1  0.38377700  0.14886300  0.80437200  1
  C  502  1  0.37783300  0.15820800  0.82380400  1
  C  503  1  0.34897200  0.16707700  0.82822600  1
  C  504  1  0.32564900  0.16455300  0.81316100  1
  C  505  1  0.33167000  0.15492100  0.79384600  1
  C  506  1  0.35045900  0.14883100  0.74881400  1
  C  507  1  0.40125500  0.14373000  0.75918200  1
  C  508  1  0.41574500  0.16315500  0.76326800  1
  C  509  1  0.44662700  0.16657500  0.75840600  1
  C  510  1  0.46440700  0.15070600  0.74907000  1
  C  511  1  0.44905100  0.13261600  0.74202100  1
  C  512  1  0.41788100  0.12953400  0.74646500  1
  C  513  1  0.34277900  0.13740800  0.73050600  1
  C  514  1  0.32686800  0.14664200  0.71376400  1
  C  515  1  0.31991000  0.16813000  0.71410200  1
  C  516  1  0.32888100  0.18002200  0.73159400  1
  C  517  1  0.34418900  0.17059800  0.74836500  1
  C  534  1  0.34982900  0.98257900  0.27500200  1
  C  535  1  0.32653900  0.96936600  0.28263000  1
  C  536  1  0.33244500  0.94816800  0.28681100  1
  C  537  1  0.36218700  0.93951300  0.28475800  1
  C  538  1  0.38468200  0.95270400  0.27571400  1
  C  539  1  0.37898700  0.97384000  0.27148700  1
  C  540  1  0.36875000  0.91648600  0.28900500  1
  C  541  1  0.36165700  0.90738100  0.26745900  1
  C  542  1  0.38397300  0.90681900  0.25135700  1
  C  543  1  0.37808900  0.89747800  0.23191500  1
  C  544  1  0.34920500  0.88868700  0.22741700  1
  C  545  1  0.32580600  0.89128200  0.24241500  1
  C  546  1  0.33176600  0.90090900  0.26173900  1
  C  547  1  0.35041400  0.90682400  0.30682900  1
  C  548  1  0.40124300  0.91197300  0.29657700  1
  C  549  1  0.41572000  0.89253000  0.29254800  1
  C  550  1  0.44661600  0.88913200  0.29739200  1
  C  551  1  0.46438400  0.90502800  0.30669300  1
  C  552  1  0.44902600  0.92311100  0.31374700  1
  C  553  1  0.41786700  0.92619300  0.30926800  1
  C  554  1  0.34278400  0.91817200  0.32519500  1
  C  555  1  0.32688900  0.90887500  0.34191200  1
  C  556  1  0.31989200  0.88739300  0.34148600  1
  C  557  1  0.32875100  0.87558800  0.32390700  1
  C  558  1  0.34406300  0.88506800  0.30717300  1
  C  575  1  0.34978500  0.78071300  0.98254300  1
  C  576  1  0.32652800  0.77301300  0.96934700  1
  C  577  1  0.33244200  0.76882500  0.94815100  1
  C  578  1  0.36215500  0.77098200  0.93947700  1
  C  579  1  0.38459500  0.78012500  0.95264300  1
  C  580  1  0.37890200  0.78433700  0.97378400  1
  C  581  1  0.36875000  0.76672200  0.91645800  1
  C  582  1  0.36167100  0.78826200  0.90733400  1
  C  583  1  0.38402400  0.80433600  0.90667400  1
  C  584  1  0.37810900  0.82378700  0.89736100  1
  C  585  1  0.34918500  0.82829600  0.88864200  1
  C  586  1  0.32577400  0.81331900  0.89130400  1
  C  587  1  0.33174600  0.79400800  0.90095900  1
  C  588  1  0.35042500  0.74889000  0.90679600  1
  C  589  1  0.40125000  0.75914300  0.91197200  1
  C  590  1  0.41569200  0.76307900  0.89249700  1
  C  591  1  0.44658600  0.75822900  0.88910100  1
  C  592  1  0.46438400  0.74898800  0.90501700  1
  C  593  1  0.44906500  0.74204300  0.92315600  1
  C  594  1  0.41791000  0.74653400  0.92624500  1
  C  595  1  0.34295700  0.73048200  0.91812400  1
  C  596  1  0.32713800  0.71373200  0.90882500  1
  C  597  1  0.32000800  0.71419000  0.88736300  1
  C  598  1  0.32869600  0.73182300  0.87557700  1
  C  599  1  0.34396000  0.74857900  0.88505500  1
  C  616  1  0.34976000  0.27494300  0.07312500  1
  C  617  1  0.32650300  0.28258800  0.08635100  1
  C  618  1  0.33245400  0.28679100  0.10753900  1
  C  619  1  0.36220800  0.28472400  0.11617300  1
  C  620  1  0.38467000  0.27566000  0.10297000  1
  C  621  1  0.37893200  0.27141400  0.08184200  1
  C  622  1  0.36880500  0.28898300  0.13919200  1
  C  623  1  0.36166900  0.26745100  0.14831600  1
  C  624  1  0.38395100  0.25132900  0.14888800  1
  C  625  1  0.37802700  0.23190000  0.15824100  1
  C  626  1  0.34913900  0.22743700  0.16704100  1
  C  627  1  0.32577600  0.24246500  0.16445900  1
  C  628  1  0.33176800  0.26177000  0.15479900  1
  C  629  1  0.35053000  0.30684200  0.14885000  1
  C  630  1  0.40132600  0.29651400  0.14369300  1
  C  631  1  0.41579500  0.29248000  0.16313600  1
  C  632  1  0.44667300  0.29735600  0.16656200  1
  C  633  1  0.46446800  0.30663900  0.15067000  1
  C  634  1  0.44913600  0.31364800  0.13255800  1
  C  635  1  0.41797700  0.30917900  0.12946500  1
  C  636  1  0.34293400  0.32519200  0.13746800  1
  C  637  1  0.32706500  0.34193600  0.14673700  1
  C  638  1  0.32003100  0.34153600  0.16821400  1
  C  639  1  0.32886300  0.32397400  0.18005300  1
  C  640  1  0.34416100  0.30721500  0.17060200  1
  C  657  1  0.85199900  0.57008100  0.77790700  1
  C  658  1  0.82980100  0.58276400  0.78769100  1
  C  659  1  0.83508300  0.60418200  0.79099500  1
  C  660  1  0.86322400  0.61378000  0.78552200  1
  C  661  1  0.88447600  0.60105000  0.77458500  1
  C  662  1  0.87919200  0.57973400  0.77098300  1
  C  663  1  0.86980800  0.63701800  0.78852800  1
  C  664  1  0.86566400  0.64484600  0.76606100  1
  C  665  1  0.89049500  0.64943200  0.75253300  1
  C  666  1  0.88602000  0.65854700  0.73281800  1
  C  667  1  0.85630000  0.66255600  0.72521500  1
  C  668  1  0.83131100  0.65592600  0.73748800  1
  C  669  1  0.83601300  0.64663300  0.75713800  1
  C  670  1  0.84914300  0.64794500  0.80438900  1
  C  671  1  0.90134600  0.64159800  0.79782100  1
  C  672  1  0.91418700  0.66193700  0.79634600  1
  C  673  1  0.94459200  0.66595600  0.80213000  1
  C  674  1  0.96278700  0.65017200  0.81120000  1
  C  675  1  0.94890900  0.63075000  0.81558300  1
  C  676  1  0.91873300  0.62668000  0.80917600  1
  C  677  1  0.84478500  0.63954900  0.82475000  1
  C  678  1  0.82580100  0.64928900  0.83960400  1
  C  679  1  0.81055800  0.66807200  0.83469200  1
  C  680  1  0.81641900  0.67741800  0.81514100  1
  C  681  1  0.83595100  0.66785800  0.80065100  1
  C  698  1  0.85190500  0.48564900  0.27788900  1
  C  699  1  0.82971700  0.47296200  0.26810100  1
  C  700  1  0.83502600  0.45155000  0.26477600  1
  C  701  1  0.86318300  0.44196100  0.27022600  1
  C  702  1  0.88441600  0.45469600  0.28117800  1
  C  703  1  0.87910800  0.47600500  0.28480500  1
  C  704  1  0.86978000  0.41872600  0.26721700  1
  C  705  1  0.86563900  0.41088800  0.28968100  1
  C  706  1  0.89047500  0.40632500  0.30321500  1
  C  707  1  0.88601300  0.39722800  0.32294000  1
  C  708  1  0.85630000  0.39322000  0.33054800  1
  C  709  1  0.83130000  0.39983600  0.31827500  1
  C  710  1  0.83599400  0.40909700  0.29861000  1
  C  711  1  0.84911800  0.40780200  0.25135400  1
  C  712  1  0.90132300  0.41416400  0.25792900  1
  C  713  1  0.91418700  0.39383200  0.25941700  1
  C  714  1  0.94460500  0.38982500  0.25365400  1
  C  715  1  0.96278700  0.40562300  0.24459600  1
  C  716  1  0.94891400  0.42504700  0.24023200  1
  C  717  1  0.91870100  0.42908800  0.24657400  1
  C  718  1  0.84477100  0.41619800  0.23099100  1
  C  719  1  0.82578800  0.40646300  0.21613400  1
  C  720  1  0.81056900  0.38766700  0.22103200  1
  C  721  1  0.81644200  0.37831300  0.24057700  1
  C  722  1  0.83595300  0.38787800  0.25507600  1
  C  739  1  0.85199600  0.27780200  0.57003300  1
  C  740  1  0.82978500  0.26802900  0.58271200  1
  C  741  1  0.83506200  0.26472500  0.60413100  1
  C  742  1  0.86321500  0.27017300  0.61372900  1
  C  743  1  0.88446700  0.28111400  0.60100000  1
  C  744  1  0.87917600  0.28474100  0.57968900  1
  C  745  1  0.86980100  0.26715900  0.63696300  1
  C  746  1  0.86569400  0.28962400  0.64480500  1
  C  747  1  0.89055000  0.30313600  0.64938200  1
  C  748  1  0.88611800  0.32284200  0.65852700  1
  C  749  1  0.85641400  0.33044500  0.66257100  1
  C  750  1  0.83139400  0.31821100  0.65592700  1
  C  751  1  0.83605800  0.29856900  0.64661000  1
  C  752  1  0.84911600  0.25130900  0.64788600  1
  C  753  1  0.90132800  0.25784300  0.64153100  1
  C  754  1  0.91418000  0.25932000  0.66186400  1
  C  755  1  0.94458300  0.25353100  0.66588200  1
  C  756  1  0.96277600  0.24448200  0.65008300  1
  C  757  1  0.94890000  0.24011000  0.63066100  1
  C  758  1  0.91870100  0.24648400  0.62660800  1
  C  759  1  0.84473900  0.23094900  0.63949100  1
  C  760  1  0.82575800  0.21609600  0.64923800  1
  C  761  1  0.81056000  0.22100200  0.66803900  1
  C  762  1  0.81645100  0.24054700  0.67738800  1
  C  763  1  0.83596700  0.25503700  0.66781500  1
  C  780  1  0.85198300  0.77788900  0.48562700  1
  C  781  1  0.82978300  0.78766300  0.47293700  1
  C  782  1  0.83507800  0.79097100  0.45152200  1
  C  783  1  0.86322600  0.78550300  0.44192800  1
  C  784  1  0.88448300  0.77458200  0.45467000  1
  C  785  1  0.87918500  0.77097200  0.47598200  1
  C  786  1  0.86980600  0.78850700  0.41869000  1
  C  787  1  0.86565000  0.76603800  0.41087100  1
  C  788  1  0.89047700  0.75249700  0.40630700  1
  C  789  1  0.88599500  0.73279300  0.39717000  1
  C  790  1  0.85627500  0.72519700  0.39315800  1
  C  791  1  0.83129100  0.73747900  0.39977200  1
  C  792  1  0.83599700  0.75712200  0.40907700  1
  C  793  1  0.84914300  0.80437000  0.40776500  1
  C  794  1  0.90134400  0.79779300  0.41410900  1
  C  795  1  0.91418700  0.79630200  0.39377400  1
  C  796  1  0.94458500  0.80209800  0.38974400  1
  C  797  1  0.96278000  0.81118100  0.40552300  1
  C  798  1  0.94890000  0.81556900  0.42494400  1
  C  799  1  0.91871200  0.80918100  0.42901200  1
  C  800  1  0.84477800  0.82473200  0.41615500  1
  C  801  1  0.82576000  0.83957200  0.40642500  1
  C  802  1  0.81055100  0.83466400  0.38762800  1
  C  803  1  0.81643500  0.81511800  0.37828000  1
  C  804  1  0.83596500  0.80063100  0.38784500  1
  C  821  1  0.20433000  0.48565800  0.77788600  1
  C  822  1  0.22650500  0.47297600  0.78769500  1
  C  823  1  0.22120900  0.45156100  0.79099600  1
  C  824  1  0.19307700  0.44196400  0.78549500  1
  C  825  1  0.17184200  0.45470100  0.77455000  1
  C  826  1  0.17714300  0.47601500  0.77094300  1
  C  827  1  0.18648900  0.41873000  0.78850600  1
  C  828  1  0.19069900  0.41089900  0.76604400  1
  C  829  1  0.16590900  0.40633800  0.75247200  1
  C  830  1  0.17043400  0.39722200  0.73276000  1
  C  831  1  0.20017900  0.39316200  0.72522900  1
  C  832  1  0.22513600  0.39978300  0.73753400  1
  C  833  1  0.22037800  0.40907500  0.75717400  1
  C  834  1  0.20710700  0.40780200  0.80439500  1
  C  835  1  0.15492800  0.41416500  0.79776400  1
  C  836  1  0.14205300  0.39384100  0.79624600  1
  C  837  1  0.11163900  0.38983200  0.80201600  1
  C  838  1  0.09346200  0.40561600  0.81110300  1
  C  839  1  0.10735500  0.42503200  0.81548800  1
  C  840  1  0.13757400  0.42907100  0.80915800  1
  C  841  1  0.21145900  0.41620900  0.82475200  1
  C  842  1  0.23045100  0.40648300  0.83960900  1
  C  843  1  0.24566100  0.38768200  0.83472000  1
  C  844  1  0.23976900  0.37831300  0.81518500  1
  C  845  1  0.22025700  0.38787000  0.80068400  1
  C  862  1  0.20423400  0.56999400  0.27780000  1
  C  863  1  0.22644400  0.58268100  0.26803300  1
  C  864  1  0.22115800  0.60409800  0.26472800  1
  C  865  1  0.19301100  0.61369300  0.27019100  1
  C  866  1  0.17174300  0.60095500  0.28110600  1
  C  867  1  0.17703200  0.57964100  0.28471300  1
  C  868  1  0.18643000  0.63693200  0.26719600  1
  C  869  1  0.19055400  0.64474300  0.28967200  1
  C  870  1  0.16570600  0.64929900  0.30319600  1
  C  871  1  0.17015100  0.65839300  0.32292500  1
  C  872  1  0.19986000  0.66241000  0.33054500  1
  C  873  1  0.22486500  0.65580200  0.31827800  1
  C  874  1  0.22019200  0.64654800  0.29860800  1
  C  875  1  0.20710700  0.64786700  0.25134900  1
  C  876  1  0.15490000  0.64151500  0.25789500  1
  C  877  1  0.14207000  0.66185800  0.25937000  1
  C  878  1  0.11164900  0.66586900  0.25361200  1
  C  879  1  0.09345600  0.65008400  0.24453300  1
  C  880  1  0.10733900  0.63066900  0.24014300  1
  C  881  1  0.13753700  0.62660900  0.24650700  1
  C  882  1  0.21148700  0.63948800  0.23098300  1
  C  883  1  0.23046500  0.64925000  0.21614000  1
  C  884  1  0.24567200  0.66804300  0.22106500  1
  C  885  1  0.23978500  0.67737200  0.24062000  1
  C  886  1  0.22026900  0.66778800  0.25510300  1
  C  903  1  0.20432900  0.77786300  0.57005000  1
  C  904  1  0.22652300  0.78765300  0.58273100  1
  C  905  1  0.22123200  0.79096700  0.60414600  1
  C  906  1  0.19309500  0.78548400  0.61374400  1
  C  907  1  0.17185000  0.77453900  0.60101400  1
  C  908  1  0.17714000  0.77092900  0.57970000  1
  C  909  1  0.18650900  0.78848900  0.63698200  1
  C  910  1  0.19061300  0.76601500  0.64480800  1
  C  911  1  0.16575200  0.75251600  0.64941000  1
  C  912  1  0.17018300  0.73277000  0.65846900  1
  C  913  1  0.19988900  0.72514000  0.66245900  1
  C  914  1  0.22490400  0.73739000  0.65583500  1
  C  915  1  0.22024200  0.75704900  0.64655400  1
  C  916  1  0.20719800  0.80433600  0.64790800  1
  C  917  1  0.15498100  0.79780000  0.64155600  1
  C  918  1  0.14217200  0.79636500  0.66190800  1
  C  919  1  0.11175000  0.80212200  0.66591900  1
  C  920  1  0.09354400  0.81117300  0.65012800  1
  C  921  1  0.10739700  0.81551100  0.63069100  1
  C  922  1  0.13759700  0.80915100  0.62663300  1
  C  923  1  0.21153700  0.82470800  0.63953500  1
  C  924  1  0.23054700  0.83954800  0.64927100  1
  C  925  1  0.24579300  0.83462800  0.66805000  1
  C  926  1  0.23995900  0.81506200  0.67737200  1
  C  927  1  0.22043400  0.80057300  0.66780400  1
  C  944  1  0.20425800  0.27786300  0.48569400  1
  C  945  1  0.22646000  0.26808800  0.47300700  1
  C  946  1  0.22116400  0.26476100  0.45159300  1
  C  947  1  0.19301800  0.27022300  0.44199800  1
  C  948  1  0.17175900  0.28115100  0.45473000  1
  C  949  1  0.17705900  0.28477700  0.47604100  1
  C  950  1  0.18644000  0.26722800  0.41875800  1
  C  951  1  0.19060000  0.28969700  0.41093800  1
  C  952  1  0.16577700  0.30323000  0.40634600  1
  C  953  1  0.17026300  0.32294200  0.39722500  1
  C  954  1  0.19999000  0.33052400  0.39321400  1
  C  955  1  0.22497300  0.31825000  0.39984500  1
  C  956  1  0.22025800  0.29861400  0.40916400  1
  C  957  1  0.20710100  0.25136600  0.40782600  1
  C  958  1  0.15489800  0.25794500  0.41417200  1
  C  959  1  0.14206700  0.25943100  0.39383100  1
  C  960  1  0.11167000  0.25363700  0.38979400  1
  C  961  1  0.09346300  0.24456500  0.40557100  1
  C  962  1  0.10731400  0.24021100  0.42500700  1
  C  963  1  0.13751300  0.24657000  0.42907600  1
  C  964  1  0.21145300  0.23100200  0.41621200  1
  C  965  1  0.23044900  0.21615600  0.40647100  1
  C  966  1  0.24566100  0.22106500  0.38767500  1
  C  967  1  0.23977800  0.24061400  0.37833000  1
  C  968  1  0.22027800  0.25510900  0.38790800  1
  C  985  1  0.20283700  0.48247300  0.28098900  1
  C  986  1  0.22654400  0.46965000  0.27328600  1
  C  987  1  0.22127600  0.44845200  0.26878000  1
  C  988  1  0.19181500  0.43934100  0.27074100  1
  C  989  1  0.16895200  0.45207100  0.28001100  1
  C  990  1  0.17396700  0.47325700  0.28443000  1
  C  991  1  0.18586400  0.41631200  0.26606300  1
  C  992  1  0.19194700  0.40705100  0.28770000  1
  C  993  1  0.16853900  0.40534600  0.30297400  1
  C  994  1  0.17381400  0.39614000  0.32256100  1
  C  995  1  0.20307700  0.38858700  0.32804200  1
  C  996  1  0.22727400  0.39223300  0.31388400  1
  C  997  1  0.22190800  0.40182800  0.29446300  1
  C  998  1  0.20546900  0.40726800  0.24854800  1
  C  999  1  0.15394300  0.41148300  0.25764000  1
  C  1000  1  0.14045600  0.39149300  0.26040900  1
  C  1001  1  0.10976200  0.38769200  0.25522600  1
  C  1002  1  0.09137600  0.40365100  0.24661600  1
  C  1003  1  0.10593500  0.42242700  0.24066900  1
  C  1004  1  0.13680000  0.42601400  0.24565800  1
  C  1005  1  0.21194900  0.41881200  0.23008400  1
  C  1006  1  0.23035800  0.41062600  0.21400900  1
  C  1007  1  0.24197800  0.39018000  0.21558200  1
  C  1008  1  0.23367700  0.37782100  0.23288000  1
  C  1009  1  0.21512400  0.38608900  0.24872300  1
  C  1026  1  0.20293900  0.57317900  0.77468700  1
  C  1027  1  0.22652400  0.58596500  0.78262500  1
  C  1028  1  0.22122200  0.60716000  0.78712200  1
  C  1029  1  0.19182800  0.61631300  0.78490500  1
  C  1030  1  0.16913400  0.60362900  0.77537700  1
  C  1031  1  0.17417200  0.58244000  0.77097700  1
  C  1032  1  0.18578500  0.63933500  0.78955000  1
  C  1033  1  0.19173600  0.64859500  0.76789500  1
  C  1034  1  0.16819300  0.65055900  0.75274700  1
  C  1035  1  0.17344300  0.65972900  0.73314000  1
  C  1036  1  0.20280300  0.66699600  0.72752200  1
  C  1037  1  0.22708700  0.66307700  0.74152900  1
  C  1038  1  0.22173200  0.65350100  0.76096200  1
  C  1039  1  0.20544100  0.64842900  0.80701400  1
  C  1040  1  0.15387500  0.64410400  0.79802800  1
  C  1041  1  0.14053100  0.66417600  0.79554300  1
  C  1042  1  0.10988000  0.66803000  0.80081800  1
  C  1043  1  0.09136600  0.65201700  0.80919800  1
  C  1044  1  0.10576200  0.63307400  0.81479600  1
  C  1045  1  0.13660000  0.62945000  0.80976700  1
  C  1046  1  0.21151000  0.63703800  0.82564000  1
  C  1047  1  0.22996500  0.64522000  0.84169500  1
  C  1048  1  0.24211500  0.66550400  0.83990900  1
  C  1049  1  0.23422700  0.67774100  0.82243500  1
  C  1050  1  0.21557300  0.66949900  0.80663600  1
  C  1067  1  0.20290900  0.77462900  0.48254300  1
  C  1068  1  0.22654100  0.78246500  0.46973400  1
  C  1069  1  0.22123900  0.78696500  0.44853900  1
  C  1070  1  0.19180300  0.78487700  0.43941700  1
  C  1071  1  0.16904400  0.77546100  0.45213100  1
  C  1072  1  0.17409900  0.77101900  0.47330900  1
  C  1073  1  0.18579000  0.78953300  0.41639400  1
  C  1074  1  0.19179100  0.76788800  0.40712900  1
  C  1075  1  0.16830200  0.75268400  0.40529000  1
  C  1076  1  0.17354900  0.73309100  0.39609200  1
  C  1077  1  0.20285800  0.72753100  0.38868200  1
  C  1078  1  0.22711100  0.74160100  0.39247500  1
  C  1079  1  0.22176600  0.76102400  0.40207500  1
  C  1080  1  0.20542500  0.80701700  0.40732300  1
  C  1081  1  0.15387500  0.79798400  0.41159800  1
  C  1082  1  0.14048200  0.79539000  0.39155700  1
  C  1083  1  0.10982900  0.80065700  0.38770300  1
  C  1084  1  0.09135700  0.80912800  0.40369100  1
  C  1085  1  0.10580800  0.81485500  0.42257500  1
  C  1086  1  0.13664800  0.80982400  0.42620000  1
  C  1087  1  0.21167500  0.82557300  0.41877900  1
  C  1088  1  0.23007200  0.84165300  0.41058700  1
  C  1089  1  0.24195500  0.83997100  0.39022000  1
  C  1090  1  0.23390300  0.82256600  0.37793500  1
  C  1091  1  0.21532900  0.80673600  0.38619800  1
  C  1108  1  0.20275200  0.28104000  0.57320100  1
  C  1109  1  0.22657100  0.27359700  0.58607700  1
  C  1110  1  0.22131100  0.26910100  0.60727900  1
  C  1111  1  0.19176000  0.27075500  0.61632200  1
  C  1112  1  0.16876000  0.27977700  0.60352900  1
  C  1113  1  0.17378200  0.28423700  0.58235100  1
  C  1114  1  0.18590400  0.26605200  0.63935600  1
  C  1115  1  0.19215300  0.28765300  0.64864000  1
  C  1116  1  0.16892300  0.30308800  0.65004500  1
  C  1117  1  0.17423600  0.32263700  0.65931700  1
  C  1118  1  0.20339200  0.32795000  0.66718200  1
  C  1119  1  0.22748300  0.31364400  0.66378600  1
  C  1120  1  0.22207500  0.29423300  0.65417700  1
  C  1121  1  0.20545000  0.24847600  0.64833700  1
  C  1122  1  0.15395600  0.25771100  0.64423700  1
  C  1123  1  0.14032300  0.26076200  0.66413600  1
  C  1124  1  0.10962700  0.25557900  0.66792400  1
  C  1125  1  0.09135800  0.24674000  0.65202800  1
  C  1126  1  0.10606700  0.24052700  0.63339100  1
  C  1127  1  0.13697200  0.24544700  0.62985100  1
  C  1128  1  0.21236200  0.23018200  0.63664200  1
  C  1129  1  0.23073200  0.21408800  0.64483000  1
  C  1130  1  0.24173800  0.21540900  0.66545200  1
  C  1131  1  0.23300500  0.23252000  0.67792700  1
  C  1132  1  0.21457400  0.24841400  0.66962900  1
  C  1149  1  0.85338500  0.57315600  0.28105000  1
  C  1150  1  0.82967600  0.58599100  0.27337200  1
  C  1151  1  0.83496200  0.60718600  0.26886400  1
  C  1152  1  0.86444600  0.61627600  0.27077700  1
  C  1153  1  0.88731300  0.60352900  0.28001800  1
  C  1154  1  0.88227600  0.58234800  0.28446000  1
  C  1155  1  0.87038100  0.63930400  0.26609200  1
  C  1156  1  0.86425200  0.64857400  0.28771700  1
  C  1157  1  0.88762100  0.65022600  0.30302900  1
  C  1158  1  0.88232900  0.65943400  0.32261100  1
  C  1159  1  0.85307900  0.66705100  0.32804800  1
  C  1160  1  0.82890100  0.66342500  0.31387100  1
  C  1161  1  0.83429200  0.65384100  0.29444700  1
  C  1162  1  0.85079500  0.64832100  0.24855600  1
  C  1163  1  0.90231500  0.64414400  0.25769800  1
  C  1164  1  0.91579700  0.66413000  0.26049300  1
  C  1165  1  0.94647000  0.66796100  0.25527200  1
  C  1166  1  0.96487000  0.65201900  0.24664600  1
  C  1167  1  0.95032600  0.63322400  0.24073300  1
  C  1168  1  0.91944100  0.62964200  0.24567000  1
  C  1169  1  0.84429100  0.63675100  0.23011300  1
  C  1170  1  0.82591100  0.64492700  0.21401600  1
  C  1171  1  0.81437500  0.66539900  0.21553600  1
  C  1172  1  0.82268100  0.67777700  0.23281800  1
  C  1173  1  0.84119100  0.66951300  0.24868500  1
  C  1190  1  0.85352900  0.48255600  0.77476000  1
  C  1191  1  0.82979000  0.46973400  0.78242400  1
  C  1192  1  0.83502100  0.44852500  0.78689600  1
  C  1193  1  0.86448300  0.43940600  0.78496900  1
  C  1194  1  0.88738600  0.45214200  0.77575000  1
  C  1195  1  0.88239500  0.47333200  0.77133600  1
  C  1196  1  0.87039900  0.41637300  0.78963500  1
  C  1197  1  0.86430000  0.40712500  0.76799500  1
  C  1198  1  0.88769700  0.40547000  0.75270300  1
  C  1199  1  0.88243400  0.39624900  0.73312100  1
  C  1200  1  0.85319300  0.38863900  0.72766200  1
  C  1201  1  0.82899000  0.39227700  0.74181500  1
  C  1202  1  0.83435200  0.40186700  0.76124100  1
  C  1203  1  0.85078100  0.40733100  0.80714200  1
  C  1204  1  0.90231500  0.41152300  0.79805400  1
  C  1205  1  0.91580200  0.39153700  0.79525800  1
  C  1206  1  0.94649500  0.38772800  0.80044500  1
  C  1207  1  0.96487500  0.40368000  0.80907500  1
  C  1208  1  0.95030500  0.42244300  0.81505200  1
  C  1209  1  0.91942700  0.42602200  0.81009800  1
  C  1210  1  0.84423400  0.41887200  0.82559700  1
  C  1211  1  0.82585400  0.41065700  0.84167300  1
  C  1212  1  0.81431100  0.39019100  0.84010400  1
  C  1213  1  0.82266000  0.37784400  0.82280900  1
  C  1214  1  0.84120000  0.38613600  0.80697500  1
  C  1231  1  0.85351300  0.28092300  0.48250300  1
  C  1232  1  0.82982400  0.27314700  0.46971000  1
  C  1233  1  0.83506500  0.26866700  0.44850300  1
  C  1234  1  0.86448100  0.27074900  0.43935200  1
  C  1235  1  0.88730400  0.28010800  0.45205100  1
  C  1236  1  0.88232400  0.28448800  0.47324900  1
  C  1237  1  0.87043800  0.26609400  0.41632000  1
  C  1238  1  0.86440500  0.28774500  0.40707800  1
  C  1239  1  0.88788200  0.30296200  0.40525900  1
  C  1240  1  0.88261600  0.32256700  0.39608800  1
  C  1241  1  0.85331900  0.32809900  0.38864200  1
  C  1242  1  0.82907300  0.31401800  0.39241900  1
  C  1243  1  0.83442700  0.29459500  0.40201600  1
  C  1244  1  0.85078600  0.24861500  0.40725100  1
  C  1245  1  0.90234400  0.25763700  0.41150500  1
  C  1246  1  0.91576300  0.26028900  0.39147700  1
  C  1247  1  0.94645600  0.25509400  0.38766600  1
  C  1248  1  0.96488600  0.24656300  0.40364300  1
  C  1249  1  0.95038500  0.24074200  0.42247900  1
  C  1250  1  0.91951800  0.24571900  0.42607100  1
  C  1251  1  0.84444700  0.23007900  0.41871500  1
  C  1252  1  0.82600000  0.21402900  0.41051600  1
  C  1253  1  0.81416000  0.21572000  0.39013800  1
  C  1254  1  0.82229500  0.23310500  0.37785100  1
  C  1255  1  0.84092200  0.24890400  0.38611900  1
  C  1272  1  0.85349000  0.77472100  0.57314200  1
  C  1273  1  0.82976900  0.78237400  0.58598200  1
  C  1274  1  0.83504400  0.78686000  0.60718300  1
  C  1275  1  0.86452600  0.78494900  0.61627400  1
  C  1276  1  0.88741400  0.77573900  0.60352000  1
  C  1277  1  0.88237900  0.77130800  0.58233700  1
  C  1278  1  0.87046300  0.78960800  0.63930700  1
  C  1279  1  0.86430900  0.76797600  0.64855400  1
  C  1280  1  0.88765800  0.75265000  0.65018600  1
  C  1281  1  0.88235100  0.73307900  0.65941400  1
  C  1282  1  0.85311100  0.72766700  0.66705700  1
  C  1283  1  0.82894900  0.74186200  0.66345500  1
  C  1284  1  0.83434500  0.76127200  0.65384300  1
  C  1285  1  0.85089800  0.80714200  0.64835400  1
  C  1286  1  0.90240400  0.79798400  0.64415900  1
  C  1287  1  0.91590400  0.79513700  0.66413100  1
  C  1288  1  0.94658400  0.80034300  0.66796000  1
  C  1289  1  0.96496600  0.80901100  0.65203000  1
  C  1290  1  0.95039200  0.81502400  0.63327700  1
  C  1291  1  0.91952700  0.81004000  0.62967600  1
  C  1292  1  0.84433700  0.82557800  0.63678800  1
  C  1293  1  0.82595000  0.84165800  0.64498900  1
  C  1294  1  0.81448900  0.84013800  0.66548000  1
  C  1295  1  0.82286600  0.82286400  0.67784900  1
  C  1296  1  0.84138300  0.80701400  0.66956300  1
  C  1313  1  0.34759700  0.17575300  0.20785000  1
  C  1315  1  0.32815400  0.20948700  0.19832800  1
  C  1316  1  0.34513900  0.20927700  0.17959900  1
  C  1318  1  0.36329300  0.17471300  0.18843500  1
  C  1320  1  0.38063600  0.15768700  0.18200600  1
  C  1324  1  0.34743000  0.88008100  0.84795700  1
  C  1326  1  0.32805900  0.84629800  0.85744300  1
  C  1327  1  0.34516600  0.84647800  0.87612100  1
  C  1329  1  0.36322000  0.88107500  0.86733800  1
  C  1331  1  0.38055100  0.89810100  0.87375400  1
  C  1335  1  0.34775500  0.84785400  0.17575100  1
  C  1337  1  0.32828200  0.85737700  0.20947600  1
  C  1338  1  0.34526200  0.87611000  0.20926600  1
  C  1340  1  0.36348000  0.86725600  0.17471800  1
  C  1342  1  0.38079600  0.87364900  0.15766800  1
  C  1346  1  0.34742600  0.20786300  0.87992400  1
  C  1348  1  0.32793700  0.19835000  0.84619100  1
  C  1349  1  0.34499300  0.17965000  0.84638100  1
  C  1351  1  0.36306400  0.18842600  0.88097500  1
  C  1353  1  0.38035500  0.18197100  0.89801500  1
  C  1357  1  0.70890500  0.87997000  0.20783000  1
  C  1359  1  0.72823300  0.84617500  0.19839600  1
  C  1360  1  0.71126900  0.84638400  0.17965600  1
  C  1362  1  0.69324800  0.88100300  0.18840200  1
  C  1364  1  0.67600500  0.89805600  0.18194200  1
  C  1368  1  0.70860300  0.17561400  0.84793000  1
  C  1370  1  0.72801100  0.20936600  0.85745800  1
  C  1371  1  0.71092600  0.20917300  0.87614300  1
  C  1373  1  0.69280700  0.17461000  0.86731300  1
  C  1375  1  0.67545700  0.15758700  0.87373200  1
  C  1379  1  0.70882900  0.20774100  0.17560100  1
  C  1381  1  0.72826300  0.19820200  0.20934900  1
  C  1382  1  0.71113900  0.17953300  0.20916800  1
  C  1384  1  0.69301900  0.18836900  0.17459700  1
  C  1386  1  0.67563000  0.18198600  0.15758500  1
  C  1390  1  0.70879700  0.84789300  0.88004000  1
  C  1392  1  0.72817600  0.85736100  0.84625600  1
  C  1393  1  0.71110700  0.87605200  0.84643300  1
  C  1395  1  0.69303300  0.86728600  0.88102700  1
  C  1397  1  0.67570800  0.87371600  0.89805100  1
  C  1401  1  0.85188200  0.67592300  0.70773500  1
  C  1403  1  0.83103500  0.70907100  0.69759800  1
  C  1404  1  0.84933100  0.70938800  0.67945700  1
  C  1406  1  0.86896000  0.67536600  0.68885800  1
  C  1408  1  0.88775600  0.65885200  0.68303400  1
  C  1412  1  0.85185900  0.37994300  0.34810000  1
  C  1414  1  0.83104200  0.34676800  0.35823600  1
  C  1415  1  0.84951800  0.34640400  0.37629100  1
  C  1417  1  0.86908400  0.38044100  0.36691600  1
  C  1419  1  0.88790500  0.39694600  0.37270400  1
  C  1423  1  0.85202800  0.34793600  0.67593900  1
  C  1425  1  0.83116100  0.35807900  0.70907600  1
  C  1426  1  0.84946100  0.37621900  0.70939500  1
  C  1428  1  0.86914500  0.36679500  0.67538900  1
  C  1430  1  0.88790900  0.37258700  0.65884900  1
  C  1434  1  0.85184800  0.70771000  0.37979600  1
  C  1436  1  0.83089600  0.69753800  0.34667900  1
  C  1437  1  0.84932400  0.67946000  0.34632500  1
  C  1439  1  0.86893300  0.68883500  0.38034900  1
  C  1441  1  0.88773600  0.68301200  0.39686000  1
  C  1445  1  0.20462700  0.37979800  0.70774700  1
  C  1447  1  0.22538100  0.34657900  0.69773800  1
  C  1448  1  0.20711700  0.34624200  0.67958000  1
  C  1450  1  0.18759300  0.38032900  0.68885400  1
  C  1452  1  0.16887900  0.39686000  0.68297900  1
  C  1456  1  0.20423400  0.67575500  0.34805000  1
  C  1458  1  0.22506500  0.70890900  0.35821500  1
  C  1459  1  0.20663100  0.70925400  0.37628800  1
  C  1461  1  0.18702300  0.67524400  0.36687500  1
  C  1463  1  0.16819900  0.65873600  0.37267600  1
  C  1467  1  0.20430600  0.70756300  0.67570900  1
  C  1469  1  0.22520100  0.69735100  0.70883700  1
  C  1470  1  0.20665500  0.67933000  0.70921500  1
  C  1472  1  0.18701000  0.68877700  0.67521900  1
  C  1474  1  0.16810300  0.68304000  0.65874100  1
  C  1478  1  0.20444700  0.34804700  0.37990400  1
  C  1480  1  0.22526300  0.35813300  0.34671200  1
  C  1481  1  0.20684800  0.37621300  0.34633700  1
  C  1483  1  0.18727200  0.36688600  0.38038500  1
  C  1485  1  0.16847000  0.37271000  0.39688800  1
  C  1489  1  0.34516600  0.00443700  0.27296300  1
  C  1491  1  0.33141700  0.03550100  0.29166300  1
  C  1492  1  0.34413400  0.04809100  0.27581700  1
  C  1494  1  0.35633500  0.01694300  0.25628200  1
  C  1496  1  0.36816100  0.00900800  0.23774700  1
  C  1500  1  0.34495400  0.05131200  0.78289400  1
  C  1502  1  0.33121300  0.02024300  0.76417400  1
  C  1503  1  0.34403800  0.00765900  0.77998700  1
  C  1505  1  0.35617500  0.03879800  0.79955200  1
  C  1507  1  0.36800600  0.04674700  0.81807000  1
  C  1511  1  0.34514300  0.78273900  0.00440800  1
  C  1513  1  0.33147100  0.76400700  0.03547000  1
  C  1514  1  0.34412900  0.77987400  0.04805800  1
  C  1516  1  0.35625000  0.79944100  0.01691500  1
  C  1518  1  0.36793500  0.81799900  0.00894100  1
  C  1522  1  0.34505400  0.27288200  0.05127500  1
  C  1524  1  0.33125000  0.29158000  0.02020400  1
  C  1525  1  0.34406500  0.27576700  0.00762000  1
  C  1527  1  0.35622700  0.25621000  0.03875700  1
  C  1529  1  0.36804900  0.23767200  0.04668600  1
  C  1533  1  0.71135400  0.05128100  0.27281500  1
  C  1535  1  0.72491400  0.02021400  0.29160500  1
  C  1536  1  0.71221700  0.00762600  0.27575200  1
  C  1538  1  0.70024700  0.03875400  0.25612900  1
  C  1540  1  0.68858300  0.04668500  0.23755200  1
  C  1544  1  0.71117300  0.00435400  0.78284400  1
  C  1546  1  0.72482000  0.03542100  0.76409400  1
  C  1547  1  0.71204600  0.04801000  0.77991600  1
  C  1549  1  0.69991600  0.01687700  0.79948400  1
  C  1551  1  0.68808900  0.00895000  0.81802200  1
  C  1555  1  0.71133100  0.27280700  0.00442000  1
  C  1557  1  0.72494600  0.29159100  0.03547800  1
  C  1558  1  0.71219700  0.27575800  0.04806700  1
  C  1560  1  0.70020600  0.25612700  0.01694700  1
  C  1562  1  0.68850100  0.23756300  0.00901600  1
  C  1566  1  0.71124600  0.78286000  0.05130900  1
  C  1568  1  0.72500300  0.76415000  0.02024200  1
  C  1569  1  0.71218100  0.77995500  0.00765200  1
  C  1571  1  0.69996400  0.79949700  0.03879400  1
  C  1573  1  0.68805700  0.81799500  0.04674200  1
  C  1577  1  0.84950400  0.50448600  0.77276200  1
  C  1579  1  0.83495000  0.53549800  0.79127000  1
  C  1580  1  0.84820900  0.54815400  0.77568600  1
  C  1582  1  0.86143800  0.51705600  0.75637600  1
  C  1584  1  0.87392200  0.50919400  0.73801900  1
  C  1588  1  0.84926900  0.55123800  0.28311400  1
  C  1590  1  0.83474200  0.52022300  0.26457900  1
  C  1591  1  0.84808800  0.50757300  0.28013300  1
  C  1593  1  0.86123400  0.53866200  0.29948300  1
  C  1595  1  0.87371200  0.54653300  0.31782800  1
  C  1599  1  0.84951100  0.28291900  0.50443900  1
  C  1601  1  0.83504200  0.26438300  0.53545600  1
  C  1602  1  0.84822900  0.27999900  0.54810200  1
  C  1604  1  0.86135300  0.29934100  0.51700400  1
  C  1606  1  0.87367800  0.31772800  0.50910000  1
  C  1610  1  0.84941500  0.77269600  0.55121900  1
  C  1612  1  0.83479500  0.79119600  0.52020200  1
  C  1613  1  0.84815900  0.77565200  0.50755100  1
  C  1615  1  0.86136900  0.75632400  0.53864000  1
  C  1617  1  0.87387400  0.73797200  0.54649600  1
  C  1621  1  0.20699500  0.55124900  0.77266800  1
  C  1623  1  0.22129700  0.52022900  0.79128400  1
  C  1624  1  0.20814400  0.50758000  0.77565800  1
  C  1626  1  0.19520400  0.53866300  0.75624100  1
  C  1628  1  0.18296300  0.54651900  0.73781500  1
  C  1632  1  0.20689500  0.50439700  0.28301900  1
  C  1634  1  0.22131500  0.53541400  0.26445100  1
  C  1635  1  0.20803100  0.54806700  0.28002400  1
  C  1637  1  0.19490800  0.51697900  0.29937800  1
  C  1639  1  0.18245400  0.50912500  0.31774700  1
  C  1643  1  0.20700200  0.77259900  0.50446800  1
  C  1645  1  0.22139200  0.79120600  0.53547300  1
  C  1646  1  0.20813900  0.77562200  0.54812900  1
  C  1648  1  0.19514300  0.75620200  0.51705800  1
  C  1650  1  0.18281400  0.73780200  0.50920500  1
  C  1654  1  0.20687500  0.28311100  0.55128800  1
  C  1656  1  0.22151600  0.26461400  0.52028000  1
  C  1657  1  0.20808200  0.28012200  0.50761900  1
  C  1659  1  0.19475400  0.29942200  0.53870900  1
  C  1661  1  0.18209100  0.31771000  0.54658000  1
  C  1665  1  0.55936200  0.15203700  0.30755200  1
  C  1667  1  0.51370400  0.14361600  0.32670000  1
  C  1668  1  0.49532400  0.15077800  0.31010500  1
  C  1670  1  0.54089000  0.15901600  0.29063500  1
  C  1672  1  0.55176200  0.16434600  0.27096700  1
  C  1676  1  0.55931800  0.90371500  0.74824800  1
  C  1678  1  0.51364900  0.91197200  0.72903800  1
  C  1679  1  0.49529900  0.90507500  0.74575900  1
  C  1681  1  0.54085600  0.89705200  0.76529800  1
  C  1683  1  0.55179100  0.89188700  0.78498300  1
  C  1687  1  0.55934400  0.74827600  0.15193900  1
  C  1689  1  0.51372700  0.72895700  0.14380400  1
  C  1690  1  0.49533500  0.74567400  0.15065800  1
  C  1692  1  0.54083800  0.76532900  0.15854200  1
  C  1694  1  0.55176200  0.78506300  0.16355600  1
  C  1698  1  0.55935000  0.30755700  0.90367100  1
  C  1700  1  0.51367000  0.32670000  0.91205400  1
  C  1701  1  0.49531500  0.31007200  0.90493700  1
  C  1703  1  0.54089700  0.29061200  0.89673500  1
  C  1705  1  0.55179600  0.27094100  0.89144500  1
  C  1709  1  0.49689300  0.90373700  0.30746500  1
  C  1711  1  0.54258100  0.91195100  0.32666900  1
  C  1712  1  0.56091300  0.90506700  0.30993200  1
  C  1714  1  0.51533300  0.89707900  0.29040100  1
  C  1716  1  0.50437700  0.89193400  0.27071800  1
  C  1720  1  0.49691600  0.15202400  0.74824100  1
  C  1722  1  0.54255800  0.14373100  0.72901400  1
  C  1723  1  0.56093800  0.15072000  0.74568300  1
  C  1725  1  0.51540800  0.15881400  0.76522300  1
  C  1727  1  0.50453700  0.16401900  0.78492700  1
  C  1731  1  0.49697100  0.30747600  0.15201500  1
  C  1733  1  0.54262000  0.32669100  0.14371500  1
  C  1734  1  0.56100000  0.31003800  0.15074100  1
  C  1736  1  0.51545100  0.29049000  0.15881700  1
  C  1738  1  0.50458200  0.27078900  0.16397800  1
  C  1742  1  0.49688600  0.74817200  0.90368000  1
  C  1744  1  0.54255600  0.72898600  0.91200000  1
  C  1745  1  0.56091800  0.74565000  0.90497800  1
  C  1747  1  0.51535500  0.76518200  0.89692700  1
  C  1749  1  0.50442700  0.78484900  0.89169000  1
  C  1753  1  0.05894800  0.65396000  0.81029300  1
  C  1755  1  0.01322200  0.64498600  0.82909000  1
  C  1756  1  0.99488900  0.65278700  0.81275700  1
  C  1758  1  0.04055400  0.66179500  0.79371600  1
  C  1760  1  0.05154900  0.66786900  0.77430000  1
  C  1764  1  0.05893900  0.40180200  0.24559200  1
  C  1766  1  0.01322600  0.41059100  0.22668100  1
  C  1767  1  0.99489900  0.40306200  0.24314400  1
  C  1769  1  0.04052000  0.39429600  0.26231100  1
  C  1771  1  0.05153400  0.38841400  0.28176800  1
  C  1775  1  0.05890900  0.24570000  0.65380500  1
  C  1777  1  0.01327300  0.22661700  0.64519700  1
  C  1778  1  0.99488700  0.24309200  0.65262200  1
  C  1780  1  0.04042400  0.26245100  0.66116000  1
  C  1782  1  0.05139100  0.28200200  0.66679800  1
  C  1786  1  0.05893400  0.81021800  0.40177100  1
  C  1788  1  0.01322200  0.82907900  0.41065500  1
  C  1789  1  0.99488500  0.81271600  0.40292300  1
  C  1791  1  0.04052400  0.79361600  0.39400200  1
  C  1793  1  0.05149500  0.77416700  0.38801300  1
  C  1797  1  0.99731500  0.40184400  0.81008000  1
  C  1799  1  0.04302700  0.41056600  0.82901600  1
  C  1800  1  0.06134900  0.40307300  0.81253500  1
  C  1802  1  0.01572400  0.39437700  0.79334200  1
  C  1804  1  0.00470500  0.38855000  0.77386900  1
  C  1808  1  0.99730600  0.65387900  0.24558600  1
  C  1810  1  0.04299200  0.64506000  0.22666100  1
  C  1811  1  0.06134500  0.65267200  0.24307000  1
  C  1813  1  0.01574900  0.66149400  0.26224000  1
  C  1815  1  0.00479500  0.66740200  0.28172100  1
  C  1819  1  0.99740000  0.81007900  0.65390400  1
  C  1821  1  0.04307000  0.82904700  0.64513800  1
  C  1822  1  0.06144500  0.81264300  0.65273600  1
  C  1824  1  0.01585100  0.79340900  0.66147200  1
  C  1826  1  0.00493300  0.77390000  0.66726500  1
  C  1830  1  0.99731300  0.24551700  0.40175500  1
  C  1832  1  0.04303000  0.22663300  0.41059400  1
  C  1833  1  0.06136400  0.24304400  0.40296500  1
  C  1835  1  0.01573200  0.26220800  0.39419300  1
  C  1837  1  0.00471500  0.28165100  0.38826400  1
  C  1841  1  0.30477600  0.18304800  0.35279500  1
  C  1843  1  0.25941000  0.18598700  0.37356600  1
  C  1844  1  0.26612200  0.20709800  0.37778700  1
  C  1846  1  0.31281500  0.20386700  0.35818100  1
  C  1848  1  0.33960800  0.21370900  0.35186000  1
  C  1852  1  0.30496300  0.87268200  0.70286600  1
  C  1854  1  0.25958200  0.86972700  0.68209100  1
  C  1855  1  0.26626100  0.84859700  0.67793000  1
  C  1857  1  0.31299100  0.85185700  0.69749200  1
  C  1859  1  0.33978900  0.84203900  0.70381200  1
  C  1863  1  0.30477800  0.70295200  0.18306200  1
  C  1865  1  0.25942200  0.68216800  0.18599300  1
  C  1866  1  0.26612700  0.67794500  0.20710500  1
  C  1868  1  0.31281000  0.69757100  0.20388600  1
  C  1870  1  0.33963600  0.70388600  0.21368700  1
  C  1874  1  0.30487700  0.35285500  0.87271400  1
  C  1876  1  0.25950400  0.37364200  0.86980800  1
  C  1877  1  0.26616800  0.37784000  0.84868300  1
  C  1879  1  0.31289000  0.35825900  0.85189500  1
  C  1881  1  0.33967900  0.35195200  0.84203700  1
  C  1885  1  0.75127800  0.87267300  0.35285500  1
  C  1887  1  0.79672100  0.86973900  0.37356300  1
  C  1888  1  0.79005300  0.84861700  0.37776300  1
  C  1890  1  0.74328500  0.85184600  0.35823900  1
  C  1892  1  0.71648200  0.84201200  0.35194800  1
  C  1896  1  0.75147400  0.18299000  0.70295400  1
  C  1898  1  0.79682400  0.18593000  0.68216000  1
  C  1899  1  0.79009600  0.20703500  0.67792000  1
  C  1901  1  0.74343100  0.20380800  0.69756200  1
  C  1903  1  0.71663500  0.21364900  0.70388000  1
  C  1907  1  0.75141500  0.35282400  0.18301500  1
  C  1909  1  0.79676500  0.37362400  0.18593700  1
  C  1910  1  0.79008300  0.37781200  0.20706200  1
  C  1912  1  0.74337800  0.35821100  0.20383300  1
  C  1914  1  0.71660100  0.35187300  0.21366800  1
  C  1918  1  0.75131400  0.70285700  0.87271000  1
  C  1920  1  0.79673300  0.68212700  0.86977800  1
  C  1921  1  0.79006200  0.67793300  0.84865500  1
  C  1923  1  0.74332100  0.69748900  0.85188100  1
  C  1925  1  0.71653500  0.70380600  0.84204200  1
  C  1929  1  0.75316200  0.87773700  0.69797300  1
  C  1931  1  0.80320400  0.87332300  0.68349000  1
  C  1932  1  0.79374000  0.85476900  0.67364400  1
  C  1934  1  0.74313600  0.85949300  0.68734700  1
  C  1936  1  0.71350800  0.85170600  0.68852900  1
  C  1940  1  0.75278600  0.17800300  0.35775600  1
  C  1942  1  0.80270600  0.18235000  0.37251200  1
  C  1943  1  0.79334300  0.20112000  0.38199500  1
  C  1945  1  0.74283000  0.19641100  0.36812400  1
  C  1947  1  0.71327700  0.20427900  0.36672100  1
  C  1951  1  0.75304800  0.35763100  0.87770400  1
  C  1953  1  0.80298900  0.37230400  0.87335500  1
  C  1954  1  0.79355500  0.38201500  0.85472400  1
  C  1956  1  0.74303800  0.36813200  0.85938200  1
  C  1958  1  0.71342800  0.36681600  0.85158400  1
  C  1962  1  0.75304400  0.69786800  0.17788600  1
  C  1964  1  0.80308500  0.68334000  0.18230300  1
  C  1965  1  0.79363900  0.67352800  0.20088100  1
  C  1967  1  0.74302200  0.68722700  0.19612000  1
  C  1969  1  0.71338700  0.68839100  0.20390000  1
  C  1973  1  0.30317000  0.17778100  0.69785100  1
  C  1975  1  0.25298700  0.18233400  0.68362000  1
  C  1976  1  0.26249900  0.20079400  0.67361500  1
  C  1978  1  0.31320300  0.19594900  0.68710600  1
  C  1980  1  0.34289100  0.20363100  0.68815100  1
  C  1984  1  0.30320200  0.87766000  0.35771900  1
  C  1986  1  0.25327700  0.87327600  0.37241000  1
  C  1987  1  0.26270000  0.85461800  0.38208100  1
  C  1989  1  0.31321900  0.85932700  0.36819500  1
  C  1991  1  0.34281300  0.85149500  0.36689100  1
  C  1995  1  0.30344000  0.69790100  0.87762400  1
  C  1997  1  0.25356700  0.68308400  0.87332900  1
  C  1998  1  0.26290300  0.67361500  0.85454400  1
  C  2000  1  0.31340600  0.68755000  0.85921300  1
  C  2002  1  0.34293400  0.68899100  0.85130900  1
  C  2006  1  0.30337100  0.35780500  0.17790900  1
  C  2008  1  0.25331600  0.37229500  0.18233400  1
  C  2009  1  0.26274300  0.38204200  0.20094900  1
  C  2011  1  0.31334500  0.36834000  0.19621600  1
  C  2013  1  0.34295500  0.36710900  0.20401100  1
  N  1314  1  0.33082500  0.19321900  0.21169000  1
  N  1317  1  0.36168000  0.19170600  0.17569200  1
  N  1325  1  0.33074300  0.86257700  0.84409200  1
  N  1328  1  0.36168500  0.86405200  0.88004600  1
  N  1336  1  0.33096400  0.84401400  0.19321000  1
  N  1339  1  0.36182900  0.88001000  0.19170500  1
  N  1347  1  0.33068800  0.21171800  0.86244700  1
  N  1350  1  0.36147500  0.17570000  0.86396800  1
  N  1358  1  0.72554600  0.86245800  0.21173700  1
  N  1361  1  0.69482800  0.86398500  0.17568900  1
  N  1369  1  0.72538200  0.19308500  0.84410900  1
  N  1372  1  0.69437100  0.19161100  0.88004900  1
  N  1380  1  0.72556000  0.21157400  0.19309100  1
  N  1383  1  0.69456600  0.17564400  0.19160800  1
  N  1391  1  0.72549400  0.84402300  0.86254200  1
  N  1394  1  0.69459500  0.87999600  0.86400500  1
  N  1402  1  0.83377800  0.69287100  0.71104000  1
  N  1405  1  0.86720100  0.69232300  0.67608300  1
  N  1413  1  0.83379400  0.36297100  0.34479600  1
  N  1416  1  0.86741100  0.36345400  0.37966000  1
  N  1424  1  0.83390600  0.34463500  0.69287900  1
  N  1427  1  0.86735700  0.37958400  0.69234200  1
  N  1435  1  0.83371900  0.71100100  0.36285700  1
  N  1438  1  0.86719700  0.67607000  0.36338200  1
  N  1446  1  0.22260900  0.36280800  0.71114500  1
  N  1449  1  0.18933900  0.36333400  0.67612500  1
  N  1457  1  0.22237000  0.69269600  0.34478400  1
  N  1460  1  0.18872100  0.69221100  0.37964500  1
  N  1468  1  0.22244500  0.71081200  0.69265400  1
  N  1471  1  0.18867800  0.67601800  0.69219500  1
  N  1479  1  0.22250800  0.34471800  0.36293600  1
  N  1482  1  0.18897600  0.37962000  0.36339200  1
  N  1490  1  0.33320800  0.01446500  0.28982000  1
  N  1493  1  0.35569000  0.03801300  0.25887500  1
  N  1501  1  0.33305200  0.04127800  0.76601900  1
  N  1504  1  0.35557600  0.01773000  0.79693600  1
  N  1512  1  0.33325300  0.76585800  0.01443400  1
  N  1515  1  0.35560800  0.79684200  0.03798600  1
  N  1523  1  0.33311200  0.28974100  0.04123900  1
  N  1526  1  0.35561500  0.25881800  0.01768900  1
  N  1534  1  0.72313400  0.04124900  0.28973100  1
  N  1537  1  0.70080900  0.01768700  0.25875700  1
  N  1545  1  0.72308200  0.01438600  0.76596900  1
  N  1548  1  0.70050700  0.03794500  0.79686900  1
  N  1556  1  0.72313000  0.28972200  0.01444400  1
  N  1559  1  0.70077000  0.25876300  0.03801300  1
  N  1567  1  0.72319400  0.76599900  0.04127900  1
  N  1570  1  0.70057600  0.79688300  0.01772700  1
  N  1578  1  0.83682100  0.51448300  0.78938600  1
  N  1581  1  0.86054900  0.53812900  0.75897100  1
  N  1589  1  0.83665400  0.54123700  0.26646600  1
  N  1592  1  0.86039600  0.51758800  0.29686400  1
  N  1600  1  0.83690800  0.26626700  0.51444100  1
  N  1603  1  0.86046700  0.29675200  0.53808300  1
  N  1611  1  0.83673200  0.78931900  0.54121800  1
  N  1614  1  0.86050600  0.75893300  0.51756700  1
  N  1622  1  0.21943500  0.54124300  0.78937600  1
  N  1625  1  0.19601400  0.51759000  0.75886500  1
  N  1633  1  0.21949900  0.51439800  0.26636600  1
  N  1636  1  0.19573900  0.53805300  0.29676100  1
  N  1644  1  0.21950200  0.78929400  0.51446100  1
  N  1647  1  0.19595200  0.75884100  0.53812900  1
  N  1655  1  0.21962300  0.26650500  0.54129800  1
  N  1658  1  0.19562200  0.29680200  0.51763700  1
  N  1666  1  0.54456600  0.14450300  0.32471400  1
  N  1669  1  0.51010800  0.15775200  0.29283200  1
  N  1677  1  0.54451300  0.91105000  0.73100200  1
  N  1680  1  0.51007900  0.89829300  0.76310700  1
  N  1688  1  0.54458600  0.73096800  0.14470400  1
  N  1691  1  0.51006300  0.76308500  0.15732600  1
  N  1699  1  0.54453600  0.32472700  0.91117100  1
  N  1702  1  0.51011500  0.29279200  0.89799800  1
  N  1710  1  0.51171200  0.91104000  0.32471700  1
  N  1713  1  0.54611700  0.89830700  0.29258300  1
  N  1721  1  0.51169600  0.14463700  0.73100700  1
  N  1724  1  0.54618600  0.15756200  0.76301800  1
  N  1732  1  0.51175800  0.32469700  0.14460400  1
  N  1735  1  0.54622900  0.29270300  0.15756800  1
  N  1743  1  0.51169100  0.73095800  0.91109300  1
  N  1746  1  0.54613500  0.76298100  0.89815300  1
  N  1754  1  0.04407900  0.64578900  0.82712200  1
  N  1757  1  0.00974500  0.66046200  0.79580400  1
  N  1765  1  0.04408500  0.40976200  0.22865200  1
  N  1768  1  0.00971500  0.39559800  0.26020100  1
  N  1776  1  0.04412600  0.22865000  0.64601500  1
  N  1779  1  0.00962600  0.26026400  0.65989200  1
  N  1787  1  0.04407800  0.82708600  0.40987500  1
  N  1790  1  0.00971600  0.79572300  0.39532200  1
  N  1798  1  0.01216800  0.40974600  0.82704700  1
  N  1801  1  0.04653000  0.39566200  0.79545600  1
  N  1809  1  0.01213700  0.64587900  0.22865500  1
  N  1812  1  0.04655400  0.66018200  0.26012000  1
  N  1820  1  0.01221700  0.82703000  0.64593200  1
  N  1823  1  0.04665200  0.79556000  0.66017000  1
  N  1831  1  0.01217200  0.22860500  0.40977500  1
  N  1834  1  0.04653900  0.26009300  0.39548300  1
  N  1842  1  0.27843300  0.17510200  0.36084200  1
  N  1845  1  0.29269600  0.21481900  0.37002800  1
  N  1853  1  0.27858300  0.88059600  0.69484300  1
  N  1856  1  0.29285200  0.84089000  0.68567500  1
  N  1864  1  0.27844400  0.69489500  0.17511600  1
  N  1867  1  0.29269600  0.68570900  0.21483000  1
  N  1875  1  0.27851500  0.36087900  0.88065400  1
  N  1878  1  0.29274200  0.37008900  0.84095000  1
  N  1886  1  0.77766900  0.88060700  0.36084500  1
  N  1889  1  0.76345400  0.84089400  0.37004500  1
  N  1897  1  0.77781600  0.17504900  0.69489700  1
  N  1900  1  0.76353400  0.21475600  0.68569800  1
  N  1908  1  0.77777200  0.36085600  0.17507800  1
  N  1911  1  0.76351300  0.37004500  0.21478500  1
  N  1919  1  0.77769200  0.69485100  0.88064700  1
  N  1922  1  0.76348100  0.68567300  0.84092700  1
  N  1930  1  0.78280900  0.88370000  0.69560700  1
  N  1933  1  0.76428300  0.84868000  0.67617500  1
  N  1941  1  0.78236600  0.17196800  0.36035100  1
  N  1944  1  0.76395800  0.20727900  0.37925400  1
  N  1952  1  0.78263800  0.36015500  0.88373400  1
  N  1955  1  0.76415000  0.37934300  0.84857500  1
  N  1963  1  0.78270600  0.69549900  0.17195900  1
  N  1966  1  0.76417100  0.67606800  0.20694600  1
  N  1974  1  0.27342500  0.17195900  0.69570400  1
  N  1977  1  0.29203100  0.20677700  0.67596900  1
  N  1985  1  0.27361200  0.88368100  0.36026700  1
  N  1988  1  0.29211100  0.84849400  0.37937500  1
  N  1996  1  0.27388900  0.69526700  0.88370500  1
  N  1999  1  0.29226900  0.67641500  0.84836000  1
  N  2007  1  0.27371800  0.36018400  0.17195400  1
  N  2010  1  0.29218700  0.37947600  0.20705400  1
  O  1321  1  0.40335200  0.16073900  0.17132600  1
  O  1322  1  0.37004800  0.13981000  0.18108100  1
  O  1332  1  0.40303200  0.89513000  0.88469000  1
  O  1333  1  0.36993100  0.91597100  0.87475000  1
  O  1343  1  0.40325400  0.88458100  0.16075800  1
  O  1344  1  0.37010700  0.87481400  0.13984100  1
  O  1354  1  0.40304600  0.17126100  0.89498500  1
  O  1355  1  0.36973500  0.18106300  0.91588600  1
  O  1365  1  0.65357000  0.89511300  0.17095600  1
  O  1366  1  0.68670300  0.91590300  0.18094600  1
  O  1376  1  0.65269700  0.16064100  0.88436800  1
  O  1377  1  0.68604500  0.13971000  0.87468700  1
  O  1387  1  0.65314300  0.17105800  0.16057200  1
  O  1388  1  0.68620000  0.18100200  0.13970200  1
  O  1398  1  0.65323600  0.88465900  0.89507400  1
  O  1399  1  0.68633300  0.87472200  0.91591900  1
  O  1409  1  0.91093100  0.66255700  0.67304500  1
  O  1410  1  0.87826900  0.64070900  0.68171800  1
  O  1420  1  0.91089000  0.39331500  0.38292800  1
  O  1421  1  0.87843400  0.41509000  0.37408700  1
  O  1431  1  0.91085600  0.38281900  0.66258500  1
  O  1432  1  0.87835400  0.37413000  0.64075100  1
  O  1442  1  0.91091300  0.67302500  0.39315300  1
  O  1443  1  0.87826200  0.68170400  0.41500500  1
  O  1453  1  0.14595900  0.39325400  0.67267900  1
  O  1454  1  0.17843500  0.41498200  0.68159600  1
  O  1464  1  0.14496800  0.66245400  0.38260100  1
  O  1465  1  0.17767100  0.64059400  0.37403100  1
  O  1475  1  0.14509300  0.67285300  0.66239900  1
  O  1476  1  0.17750500  0.68165400  0.64058000  1
  O  1486  1  0.14549900  0.38294700  0.39325000  1
  O  1487  1  0.17795400  0.37411400  0.41502700  1
  O  1497  1  0.38915000  0.01827300  0.22921700  1
  O  1498  1  0.35343800  0.99711500  0.22634100  1
  O  1508  1  0.38867900  0.03734100  0.82681100  1
  O  1509  1  0.35325300  0.05859500  0.82951100  1
  O  1519  1  0.38860600  0.82669000  0.01840300  1
  O  1520  1  0.35300600  0.82948900  0.99726600  1
  O  1530  1  0.38903300  0.22913700  0.03741700  1
  O  1531  1  0.35334000  0.22627100  0.05859200  1
  O  1541  1  0.66794300  0.03729600  0.22875500  1
  O  1542  1  0.70345400  0.05849800  0.22614700  1
  O  1552  1  0.66707300  0.01820300  0.82653700  1
  O  1553  1  0.70280500  0.99706000  0.82943800  1
  O  1563  1  0.66786600  0.22877500  0.01841800  1
  O  1564  1  0.70333300  0.22615400  0.99718500  1
  O  1574  1  0.66734700  0.82669600  0.03733600  1
  O  1575  1  0.70276000  0.82946100  0.05859500  1
  O  1585  1  0.89536300  0.51841900  0.72998400  1
  O  1586  1  0.85943200  0.49758500  0.72619000  1
  O  1596  1  0.89485200  0.53717100  0.32608200  1
  O  1597  1  0.85921100  0.55811600  0.32968100  1
  O  1607  1  0.89481300  0.32593500  0.51851400  1
  O  1608  1  0.85898900  0.32963000  0.49769700  1
  O  1618  1  0.89531500  0.72994300  0.53726400  1
  O  1619  1  0.85941200  0.72614300  0.55812200  1
  O  1629  1  0.16188500  0.53717500  0.72946900  1
  O  1630  1  0.19763900  0.55806000  0.72601900  1
  O  1640  1  0.16100400  0.51833800  0.32578400  1
  O  1641  1  0.19695400  0.49751600  0.32957000  1
  O  1651  1  0.16171800  0.72949100  0.51856300  1
  O  1652  1  0.19742300  0.72598000  0.49765200  1
  O  1662  1  0.16088500  0.32587100  0.53721000  1
  O  1663  1  0.19647400  0.32962800  0.55816800  1
  O  1673  1  0.54044000  0.17948600  0.26230000  1
  O  1674  1  0.56258100  0.15100400  0.25912100  1
  O  1684  1  0.54018900  0.87708300  0.79405500  1
  O  1685  1  0.56299200  0.90523400  0.79666300  1
  O  1695  1  0.54008400  0.79402600  0.17840700  1
  O  1696  1  0.56261000  0.79676700  0.15012200  1
  O  1706  1  0.54047200  0.26222600  0.87633300  1
  O  1707  1  0.56267000  0.25913600  0.90480500  1
  O  1717  1  0.51597200  0.87714200  0.26162000  1
  O  1718  1  0.49314200  0.90528900  0.25906100  1
  O  1728  1  0.51590800  0.17906900  0.79371800  1
  O  1729  1  0.49362400  0.15061300  0.79666100  1
  O  1739  1  0.51613200  0.26177200  0.17883400  1
  O  1740  1  0.49352400  0.25906100  0.15061700  1
  O  1750  1  0.51600900  0.79385400  0.87683700  1
  O  1751  1  0.49327000  0.79659100  0.90500000  1
  O  1761  1  0.04052400  0.68349000  0.76633800  1
  O  1762  1  0.06184600  0.65490800  0.76182800  1
  O  1772  1  0.04021100  0.37311800  0.29016400  1
  O  1773  1  0.06219300  0.40141000  0.29406900  1
  O  1783  1  0.03996800  0.29035400  0.68208900  1
  O  1784  1  0.06171300  0.29426400  0.65366800  1
  O  1794  1  0.04045900  0.76614100  0.37242900  1
  O  1795  1  0.06179500  0.76175000  0.40102600  1
  O  1805  1  0.01603200  0.37328300  0.76542300  1
  O  1806  1  0.99401700  0.40157500  0.76161100  1
  O  1816  1  0.01588500  0.68292500  0.28983300  1
  O  1817  1  0.99442800  0.65434400  0.29406400  1
  O  1827  1  0.01621800  0.76549800  0.68256900  1
  O  1828  1  0.99441000  0.76160800  0.65421100  1
  O  1838  1  0.01602000  0.29000100  0.37293800  1
  O  1839  1  0.99408300  0.29398900  0.40123300  1
  O  1849  1  0.33899400  0.23242100  0.34810600  1
  O  1850  1  0.36514800  0.20654300  0.35596700  1
  O  1860  1  0.33938500  0.82326500  0.70727700  1
  O  1861  1  0.36533300  0.84918700  0.69967500  1
  O  1871  1  0.33902600  0.70736800  0.23245900  1
  O  1872  1  0.36516800  0.69959600  0.20664600  1
  O  1882  1  0.33905600  0.34821300  0.82332200  1
  O  1883  1  0.36522300  0.35604600  0.84920300  1
  O  1893  1  0.71689800  0.82323700  0.34848900  1
  O  1894  1  0.69093800  0.84915300  0.35610300  1
  O  1904  1  0.71725000  0.23236000  0.70763500  1
  O  1905  1  0.69109800  0.20648500  0.69976400  1
  O  1915  1  0.71703000  0.34841600  0.23244300  1
  O  1916  1  0.69104300  0.35599300  0.20653400  1
  O  1926  1  0.71696900  0.70727300  0.82327000  1
  O  1927  1  0.69098100  0.69966500  0.84917200  1
  O  1937  1  0.70963600  0.83280600  0.68810400  1
  O  1938  1  0.69103600  0.86224700  0.68343500  1
  O  1948  1  0.70941400  0.22317900  0.36728100  1
  O  1949  1  0.69066400  0.19388100  0.37183100  1
  O  1959  1  0.70969500  0.36742500  0.83267000  1
  O  1960  1  0.69090400  0.37208300  0.86196800  1
  O  1970  1  0.70949900  0.68795300  0.22279800  1
  O  1971  1  0.69092000  0.68331700  0.19334600  1
  O  1981  1  0.34701000  0.22249500  0.68729500  1
  O  1982  1  0.36526400  0.19300900  0.68301400  1
  O  1992  1  0.34661500  0.83258600  0.36720000  1
  O  1993  1  0.36535100  0.86196800  0.37199000  1
  O  2003  1  0.34675400  0.68843200  0.83240500  1
  O  2004  1  0.36558600  0.68391000  0.86168000  1
  O  2014  1  0.34692100  0.36780400  0.22289600  1
  O  2015  1  0.36546300  0.37224300  0.19351900  1
