# generated using pymatgen
data_H11C14N4O
_symmetry_space_group_name_H-M   'P 1'
_cell_length_a   46.32350000
_cell_length_b   60.45335000
_cell_length_c   60.45330000
_cell_angle_alpha   60.00008208
_cell_angle_beta   90.00000000
_cell_angle_gamma   90.00000000
_symmetry_Int_Tables_number   1
_chemical_formula_structural   H11C14N4O
_chemical_formula_sum   'H528 C672 N192 O48'
_cell_volume   146613.08808124
_cell_formula_units_Z   48
loop_
 _symmetry_equiv_pos_site_id
 _symmetry_equiv_pos_as_xyz
  1  'x, y, z'
loop_
 _atom_site_type_symbol
 _atom_site_label
 _atom_site_symmetry_multiplicity
 _atom_site_fract_x
 _atom_site_fract_y
 _atom_site_fract_z
 _atom_site_occupancy
  H  7  1  0.84312100  0.32175000  0.60208000  1
  H  16  1  0.83239800  0.33380500  0.52521700  1
  H  17  1  0.93117700  0.27617600  0.60528800  1
  H  18  1  0.72994300  0.35358700  0.52107500  1
  H  19  1  0.79282800  0.31846100  0.59424900  1
  H  23  1  0.77729700  0.35383000  0.48685300  1
  H  24  1  0.89324100  0.28275300  0.64622800  1
  H  25  1  0.73647300  0.32705300  0.58785400  1
  H  32  1  0.50070200  0.59022800  0.33399000  1
  H  41  1  0.51067600  0.51174700  0.34872200  1
  H  42  1  0.41355900  0.59366600  0.28723000  1
  H  43  1  0.61349800  0.50812500  0.36693400  1
  H  44  1  0.55048100  0.58097700  0.33246400  1
  H  48  1  0.56644000  0.47382400  0.36784100  1
  H  49  1  0.45546000  0.63555300  0.29135200  1
  H  50  1  0.60680000  0.57479200  0.34061200  1
  H  57  1  0.49897300  0.32335700  0.60226500  1
  H  66  1  0.51663000  0.33450600  0.52728000  1
  H  67  1  0.41562000  0.27588000  0.60008100  1
  H  68  1  0.58857400  0.39505300  0.52067900  1
  H  69  1  0.55076600  0.32194000  0.59710300  1
  H  73  1  0.57376900  0.36695400  0.48912000  1
  H  74  1  0.44628700  0.28347300  0.64327000  1
  H  75  1  0.59249400  0.34497500  0.59797900  1
  H  82  1  0.84461600  0.59116500  0.33485400  1
  H  91  1  0.82868000  0.51382900  0.34951400  1
  H  92  1  0.92862200  0.58829500  0.28834100  1
  H  93  1  0.75478500  0.50767800  0.40824800  1
  H  94  1  0.79369500  0.58396400  0.33523300  1
  H  98  1  0.77067800  0.47609300  0.38078100  1
  H  99  1  0.89552400  0.63250300  0.29222200  1
  H  100  1  0.75121000  0.58522100  0.35709200  1
  H  103  1  0.69324000  0.40716700  0.51303900  1
  H  104  1  0.72335000  0.41084700  0.52900800  1
  H  105  1  0.69121900  0.42785100  0.52591700  1
  H  110  1  0.63509900  0.33152400  0.62862500  1
  H  111  1  0.66666667  0.31382600  0.63154200  1
  H  112  1  0.63784700  0.31395000  0.61228000  1
  H  119  1  0.65098900  0.49998300  0.42059100  1
  H  120  1  0.62088300  0.51596000  0.42426100  1
  H  121  1  0.65309200  0.51306100  0.44109900  1
  H  126  1  0.70864700  0.61561600  0.34424700  1
  H  127  1  0.67701300  0.61836500  0.32670500  1
  H  128  1  0.70584900  0.59915500  0.32678500  1
  H  135  1  0.89054500  0.38972600  0.60032800  1
  H  136  1  0.89410300  0.36761700  0.58946800  1
  H  137  1  0.92446800  0.38536300  0.58937900  1
  H  145  1  0.46076400  0.67341300  0.29755100  1
  H  146  1  0.43201800  0.69334300  0.29601400  1
  H  147  1  0.42603800  0.67038900  0.28659400  1
  H  153  1  0.88224400  0.67102100  0.29895000  1
  H  154  1  0.90930300  0.69218700  0.29779000  1
  H  155  1  0.91763500  0.66993100  0.28794600  1
  H  159  1  0.45353800  0.39019000  0.59880200  1
  H  160  1  0.44881500  0.36828300  0.58781500  1
  H  161  1  0.41921500  0.38671600  0.58783200  1
  H  167  1  0.85503500  0.45868900  0.44918300  1
  H  168  1  0.85880200  0.47287900  0.41566400  1
  H  169  1  0.87703000  0.44407700  0.43602900  1
  H  174  1  0.48933700  0.43473500  0.47318100  1
  H  175  1  0.48555000  0.40125100  0.48703500  1
  H  176  1  0.46705000  0.42186900  0.45847300  1
  H  179  1  0.84593500  0.29036800  0.55379500  1
  H  181  1  0.89241300  0.26681900  0.55559500  1
  H  182  1  0.49716000  0.53934100  0.30561700  1
  H  184  1  0.45134900  0.54156700  0.28073900  1
  H  185  1  0.50703400  0.28978200  0.55642900  1
  H  187  1  0.47314400  0.25980500  0.55881900  1
  H  188  1  0.83928500  0.54131500  0.30554800  1
  H  190  1  0.87681300  0.54125300  0.27834500  1
  H  193  1  0.89322600  0.51430400  0.25807400  1
  H  194  1  0.92259700  0.52725300  0.26693700  1
  H  195  1  0.92805600  0.51670300  0.24487600  1
  H  200  1  0.90176000  0.63061000  0.15079100  1
  H  201  1  0.88172600  0.63816500  0.17108100  1
  H  202  1  0.86446600  0.62274800  0.15632700  1
  H  207  1  0.91696700  0.22259300  0.52511000  1
  H  212  1  0.90131800  0.19578500  0.64369500  1
  H  213  1  0.87988500  0.16890300  0.65035100  1
  H  214  1  0.86405600  0.19968000  0.63552400  1
  H  219  1  0.41088400  0.51950700  0.22594900  1
  H  224  1  0.44221600  0.62983300  0.21202200  1
  H  225  1  0.46151700  0.63807700  0.18365100  1
  H  226  1  0.47948400  0.62214100  0.21347600  1
  H  232  1  0.44773800  0.24231100  0.52613700  1
  H  233  1  0.42543600  0.25586300  0.54015300  1
  H  234  1  0.41081100  0.23360300  0.53253900  1
  H  239  1  0.44198900  0.13679700  0.64279500  1
  H  240  1  0.46108100  0.15692500  0.65116400  1
  H  241  1  0.47926800  0.14315500  0.63521800  1
  H  248  1  0.76515800  0.37501600  0.44204700  1
  H  249  1  0.74606000  0.40365200  0.42292800  1
  H  250  1  0.74591100  0.39009500  0.45646700  1
  H  257  1  0.57804300  0.42895300  0.38807000  1
  H  258  1  0.59731400  0.40941700  0.41648800  1
  H  259  1  0.59765300  0.44288500  0.40344500  1
  H  263  1  0.39051600  0.58743500  0.40290800  1
  H  264  1  0.95362800  0.58701900  0.40426400  1
  H  265  1  0.93166700  0.28366900  0.70724600  1
  H  266  1  0.40935800  0.28503100  0.70531500  1
  H  272  1  0.93109700  0.59198500  0.11062800  1
  H  275  1  0.89235600  0.54234600  0.16946000  1
  H  276  1  0.89365600  0.63296100  0.06301200  1
  H  282  1  0.41367500  0.09808200  0.60653300  1
  H  285  1  0.45152600  0.15648600  0.55453200  1
  H  286  1  0.45549900  0.05188300  0.64851800  1
  H  292  1  0.41543000  0.58686600  0.11570200  1
  H  295  1  0.47195200  0.54485400  0.17304700  1
  H  296  1  0.44626800  0.63031200  0.06506300  1
  H  302  1  0.92949900  0.09999700  0.60273500  1
  H  305  1  0.88824100  0.15555400  0.55121600  1
  H  306  1  0.89395900  0.05337500  0.64675100  1
  H  309  1  0.89023000  0.20018000  0.52886800  1
  H  310  1  0.92660200  0.19015600  0.53827300  1
  H  313  1  0.44769900  0.51308200  0.22324600  1
  H  314  1  0.42500600  0.52714000  0.19592200  1
  H  317  1  0.93175400  0.69426100  0.00063200  1
  H  319  1  0.46069000  0.00784000  0.68635700  1
  H  320  1  0.43193800  0.98945000  0.70627900  1
  H  321  1  0.42596500  0.02182400  0.68332300  1
  H  323  1  0.88222900  0.00816700  0.68491400  1
  H  324  1  0.90957900  0.98831200  0.70578800  1
  H  325  1  0.91755800  0.02049800  0.68353600  1
  H  326  1  0.40923300  0.69235100  0.00138300  1
  H  327  1  0.84566000  0.54064200  0.14754500  1
  H  328  1  0.49741000  0.13373700  0.55234800  1
  H  329  1  0.50675800  0.54319800  0.14556200  1
  H  330  1  0.84203900  0.13192200  0.55311000  1
  H  332  1  0.96061900  0.69269100  0.98236500  1
  H  334  1  0.38220500  0.69118200  0.98135600  1
  H  341  1  0.84327600  0.58895900  0.06786500  1
  H  349  1  0.83229900  0.51211700  0.13256700  1
  H  350  1  0.72980900  0.50817500  0.11695100  1
  H  351  1  0.79287200  0.58122700  0.07887500  1
  H  354  1  0.77705700  0.47386400  0.15087300  1
  H  355  1  0.73644200  0.57487800  0.07672100  1
  H  362  1  0.84326200  0.05476700  0.33494100  1
  H  371  1  0.83227900  0.11948400  0.34703500  1
  H  372  1  0.93112600  0.09753500  0.28913300  1
  H  373  1  0.72981500  0.10379300  0.36665000  1
  H  374  1  0.84571400  0.13444700  0.30349300  1
  H  375  1  0.79286600  0.06582200  0.33157000  1
  H  380  1  0.77753000  0.13797300  0.36684000  1
  H  381  1  0.89204000  0.15641900  0.27970900  1
  H  382  1  0.89340400  0.04975900  0.29584700  1
  H  383  1  0.73618100  0.06401200  0.34003200  1
  H  390  1  0.34335900  0.38823000  0.93539500  1
  H  399  1  0.33215700  0.46501500  0.87074900  1
  H  400  1  0.43090600  0.38521800  0.89230500  1
  H  401  1  0.22967100  0.46881600  0.88639000  1
  H  402  1  0.34534700  0.43648100  0.85569400  1
  H  403  1  0.29284500  0.39585500  0.92445800  1
  H  408  1  0.27715100  0.50322400  0.85232500  1
  H  409  1  0.39234000  0.43477300  0.83375600  1
  H  410  1  0.39364700  0.34423800  0.94013100  1
  H  411  1  0.23613000  0.40247600  0.92619800  1
  H  418  1  0.34339600  0.92231200  0.66813600  1
  H  427  1  0.33226100  0.85759200  0.65607200  1
  H  428  1  0.43106400  0.87937800  0.71409300  1
  H  429  1  0.22975800  0.87322800  0.63658200  1
  H  430  1  0.34552800  0.84261000  0.69960400  1
  H  431  1  0.29292000  0.91134900  0.67144200  1
  H  436  1  0.27684800  0.83935900  0.63609600  1
  H  437  1  0.39237300  0.82068600  0.72318900  1
  H  438  1  0.39355200  0.92717700  0.70731900  1
  H  439  1  0.23646700  0.91348600  0.66299100  1
  H  446  1  0.34336300  0.65514100  0.40123400  1
  H  455  1  0.33216600  0.64293400  0.47804200  1
  H  456  1  0.43093400  0.70119100  0.39828700  1
  H  457  1  0.22967400  0.62350900  0.48181500  1
  H  458  1  0.34536400  0.68652900  0.44953800  1
  H  459  1  0.29285100  0.65846100  0.40885500  1
  H  464  1  0.27723900  0.62318400  0.51624100  1
  H  465  1  0.39231700  0.71017000  0.44786800  1
  H  466  1  0.39367700  0.69439300  0.35727200  1
  H  467  1  0.23609400  0.65006600  0.41550900  1
  H  474  1  0.00071600  0.65616100  0.93564600  1
  H  483  1  0.01067900  0.64139400  0.87193000  1
  H  484  1  0.91360600  0.70297900  0.89228100  1
  H  485  1  0.11349100  0.62314800  0.88653100  1
  H  486  1  0.99719100  0.68452400  0.85638600  1
  H  487  1  0.05050300  0.65769700  0.92486400  1
  H  492  1  0.06633500  0.62226700  0.85311300  1
  H  493  1  0.95140500  0.70942700  0.83371900  1
  H  494  1  0.95595300  0.69876700  0.93846200  1
  H  495  1  0.10682200  0.64952800  0.92682900  1
  H  502  1  0.00091500  0.38664900  0.66934700  1
  H  511  1  0.01056600  0.46520800  0.65455200  1
  H  512  1  0.91349400  0.38302500  0.71591700  1
  H  513  1  0.11336500  0.46901100  0.63621200  1
  H  514  1  0.99682000  0.43760600  0.69759700  1
  H  515  1  0.05055700  0.39602100  0.67090900  1
  H  520  1  0.06558600  0.50326400  0.63565800  1
  H  521  1  0.95124200  0.43521000  0.72248500  1
  H  522  1  0.95618300  0.34115300  0.71183400  1
  H  523  1  0.10710300  0.40261700  0.66275100  1
  H  530  1  0.00074600  0.92260600  0.39993900  1
  H  539  1  0.01070000  0.85885300  0.47841600  1
  H  540  1  0.91362900  0.87927500  0.39644500  1
  H  541  1  0.11351200  0.87347700  0.48205700  1
  H  542  1  0.99719300  0.84334100  0.45081900  1
  H  543  1  0.05051400  0.91183200  0.40919200  1
  H  548  1  0.06644500  0.84006500  0.51634500  1
  H  549  1  0.95137100  0.82070500  0.44854900  1
  H  550  1  0.95615600  0.92548500  0.35447700  1
  H  551  1  0.10682400  0.91380900  0.41538800  1
  H  558  1  0.50065700  0.32103400  0.06748100  1
  H  567  1  0.51079900  0.33581000  0.13115400  1
  H  568  1  0.41367700  0.27409000  0.11105300  1
  H  569  1  0.61360600  0.35396200  0.11648500  1
  H  570  1  0.49736900  0.29263100  0.14675300  1
  H  571  1  0.55050200  0.31946000  0.07821100  1
  H  576  1  0.56623500  0.35477500  0.15007600  1
  H  577  1  0.45144400  0.26769000  0.16946400  1
  H  578  1  0.45551800  0.27834000  0.06487100  1
  H  579  1  0.60712100  0.32752600  0.07662600  1
  H  582  1  0.50066400  0.05447100  0.60325400  1
  H  590  1  0.51081400  0.11809900  0.52479400  1
  H  591  1  0.61360000  0.10342400  0.52128900  1
  H  592  1  0.55052600  0.06518300  0.59409300  1
  H  595  1  0.56614400  0.13705100  0.48690700  1
  H  596  1  0.60711100  0.06356500  0.58763500  1
  H  603  1  0.00059300  0.38615200  0.93683300  1
  H  612  1  0.01597800  0.46305100  0.87322900  1
  H  613  1  0.91392500  0.38899200  0.89045800  1
  H  614  1  0.08848800  0.46948600  0.92654600  1
  H  615  1  0.00285300  0.43590600  0.85743400  1
  H  616  1  0.05097100  0.39309900  0.92948500  1
  H  621  1  0.07347800  0.50108900  0.86712500  1
  H  622  1  0.95539000  0.43846300  0.83473000  1
  H  623  1  0.94767000  0.34533000  0.93896000  1
  H  624  1  0.09253600  0.39220300  0.95352400  1
  H  631  1  0.99907100  0.92401300  0.66696700  1
  H  640  1  0.01659600  0.86025000  0.65555700  1
  H  641  1  0.91542200  0.87443900  0.71394900  1
  H  642  1  0.08862200  0.91414100  0.59513900  1
  H  643  1  0.00678200  0.84460100  0.70015200  1
  H  644  1  0.05076600  0.91739100  0.66828400  1
  H  649  1  0.07379600  0.85453900  0.62314900  1
  H  650  1  0.97195600  0.81710500  0.72927700  1
  H  651  1  0.94627200  0.92502700  0.70681100  1
  H  652  1  0.09249500  0.94130500  0.64529100  1
  H  659  1  0.99919600  0.65409300  0.40068100  1
  H  668  1  0.01655500  0.64269300  0.47596700  1
  H  669  1  0.91526300  0.70071900  0.40341000  1
  H  670  1  0.08858100  0.58222600  0.48268000  1
  H  671  1  0.00653200  0.68711400  0.44708400  1
  H  672  1  0.05077100  0.65524400  0.40617200  1
  H  677  1  0.07383700  0.61028500  0.51412900  1
  H  678  1  0.97113900  0.71569200  0.44584900  1
  H  679  1  0.94635200  0.69377200  0.35982700  1
  H  680  1  0.09238500  0.63199500  0.40539000  1
  H  683  1  0.49909600  0.58944100  0.06615200  1
  H  691  1  0.51658900  0.51424900  0.12994000  1
  H  692  1  0.58860400  0.50767300  0.07607100  1
  H  693  1  0.55076600  0.58409800  0.07276500  1
  H  696  1  0.57380400  0.47612200  0.13566000  1
  H  697  1  0.59248100  0.58499400  0.04884900  1
  H  704  1  0.49908300  0.05319700  0.33623700  1
  H  713  1  0.51664500  0.11716500  0.34731500  1
  H  714  1  0.41548200  0.10269600  0.28910200  1
  H  715  1  0.58852800  0.06331300  0.40795600  1
  H  716  1  0.50687600  0.13262500  0.30275300  1
  H  717  1  0.55078100  0.05976600  0.33496500  1
  H  722  1  0.57386200  0.12286100  0.37981300  1
  H  723  1  0.47250500  0.16010900  0.27324900  1
  H  724  1  0.44633300  0.05199200  0.29647600  1
  H  725  1  0.59237900  0.03571400  0.35828000  1
  H  732  1  0.84401400  0.32119500  0.06587800  1
  H  741  1  0.82874800  0.33641200  0.12854600  1
  H  742  1  0.92908700  0.27580900  0.11414800  1
  H  743  1  0.75486700  0.39508900  0.07609900  1
  H  744  1  0.84062900  0.29312600  0.14499100  1
  H  745  1  0.79357100  0.32202000  0.07282000  1
  H  750  1  0.77064100  0.36761500  0.13506900  1
  H  751  1  0.88363400  0.26977900  0.17017500  1
  H  752  1  0.89499100  0.27887500  0.06692000  1
  H  753  1  0.75127300  0.34419900  0.04948900  1
  H  756  1  0.84362400  0.05291200  0.60508600  1
  H  764  1  0.82904900  0.11552400  0.52672100  1
  H  765  1  0.75487200  0.06335500  0.52056600  1
  H  766  1  0.79361200  0.06014400  0.59688000  1
  H  769  1  0.77079400  0.12224200  0.48904500  1
  H  770  1  0.75125100  0.03691400  0.59809000  1
  H  777  1  0.34477300  0.65510700  0.93748300  1
  H  786  1  0.32861300  0.64075100  0.87471300  1
  H  787  1  0.42842800  0.70200500  0.88787800  1
  H  788  1  0.25476200  0.58191900  0.92730500  1
  H  789  1  0.33882100  0.68488700  0.85831700  1
  H  790  1  0.29371700  0.65483600  0.93072700  1
  H  795  1  0.27060500  0.60942800  0.86828300  1
  H  796  1  0.37423700  0.71366900  0.83055400  1
  H  797  1  0.39562600  0.69785400  0.93613200  1
  H  798  1  0.25122200  0.63296500  0.95382400  1
  H  805  1  0.34466700  0.38611800  0.66820100  1
  H  814  1  0.32860400  0.46327500  0.65392700  1
  H  815  1  0.42850400  0.38885100  0.71489800  1
  H  816  1  0.25479900  0.46968300  0.59500600  1
  H  817  1  0.33893800  0.43555200  0.69794600  1
  H  818  1  0.29366900  0.39324800  0.66783000  1
  H  823  1  0.27055800  0.50107500  0.62258000  1
  H  824  1  0.37458500  0.43467000  0.72648500  1
  H  825  1  0.39520900  0.34459100  0.71089100  1
  H  826  1  0.25126900  0.39215200  0.64570800  1
  H  833  1  0.34487900  0.92449300  0.39927200  1
  H  842  1  0.32860200  0.86169500  0.47626200  1
  H  843  1  0.42830700  0.87475600  0.40179800  1
  H  844  1  0.25481000  0.91435500  0.48251400  1
  H  845  1  0.33861000  0.84531100  0.44839100  1
  H  846  1  0.29373200  0.91776100  0.40618000  1
  H  851  1  0.27065700  0.85527300  0.51403500  1
  H  852  1  0.37327900  0.81740100  0.44689300  1
  H  853  1  0.39568200  0.92314900  0.35781800  1
  H  854  1  0.25124400  0.94087000  0.40496400  1
  H  857  1  0.89209800  0.24902700  0.21377200  1
  H  858  1  0.92759300  0.25040400  0.20169000  1
  H  859  1  0.92024500  0.23079100  0.23458100  1
  H  864  1  0.90155700  0.13858300  0.20921300  1
  H  865  1  0.88040000  0.15883900  0.18214000  1
  H  866  1  0.86432200  0.14323400  0.21281900  1
  H  873  1  0.39538200  0.46424500  0.74775000  1
  H  874  1  0.41945600  0.45067200  0.73490200  1
  H  875  1  0.43195800  0.45826900  0.75777000  1
  H  880  1  0.40155600  0.34662000  0.85240700  1
  H  881  1  0.38205400  0.33893900  0.83195500  1
  H  882  1  0.36426600  0.35435100  0.84647100  1
  H  889  1  0.39537100  0.73478700  0.77967100  1
  H  890  1  0.41920600  0.72179700  0.80625700  1
  H  891  1  0.43200900  0.74460700  0.77588400  1
  H  896  1  0.40175000  0.83944200  0.79261400  1
  H  897  1  0.38216000  0.81905900  0.82071700  1
  H  898  1  0.36445000  0.83359200  0.79075300  1
  H  905  1  0.39564600  0.76630700  0.47733900  1
  H  906  1  0.41875000  0.79337700  0.46373600  1
  H  907  1  0.43242200  0.76332700  0.47102200  1
  H  912  1  0.40185000  0.77951300  0.35969700  1
  H  913  1  0.38244300  0.80772100  0.35190500  1
  H  914  1  0.36454700  0.77784400  0.36734800  1
  H  921  1  0.94774400  0.76690900  0.74773800  1
  H  922  1  0.92502400  0.79421700  0.73448100  1
  H  923  1  0.91093200  0.76418100  0.75688500  1
  H  928  1  0.94223600  0.77815300  0.85325400  1
  H  929  1  0.96154000  0.80652200  0.83312700  1
  H  930  1  0.97950700  0.77669800  0.84702700  1
  H  937  1  0.95365000  0.46124300  0.79024600  1
  H  938  1  0.91727700  0.45174400  0.80021600  1
  H  939  1  0.92693600  0.46518100  0.76776100  1
  H  944  1  0.94279700  0.34711800  0.79317400  1
  H  945  1  0.96405900  0.34008500  0.82025500  1
  H  946  1  0.98007300  0.35523000  0.78954700  1
  H  953  1  0.94765500  0.73461000  0.47706300  1
  H  954  1  0.92456600  0.72161000  0.46299300  1
  H  955  1  0.91094000  0.74410800  0.47068500  1
  H  960  1  0.94245800  0.84018100  0.36027500  1
  H  961  1  0.96180500  0.82001600  0.35211000  1
  H  962  1  0.97970900  0.83394000  0.36804000  1
  H  969  1  0.44748500  0.21027300  0.25532900  1
  H  970  1  0.42504100  0.18279500  0.26874100  1
  H  971  1  0.41062900  0.21271800  0.24638400  1
  H  976  1  0.44226300  0.19904400  0.14983300  1
  H  977  1  0.46139200  0.17058600  0.17001500  1
  H  978  1  0.47951200  0.20033300  0.15623700  1
  H  985  1  0.69321000  0.50008000  0.07148000  1
  H  986  1  0.72327900  0.51604800  0.05177100  1
  H  987  1  0.69111300  0.51292100  0.03792600  1
  H  992  1  0.63503800  0.61564700  0.03157200  1
  H  993  1  0.66663300  0.61858100  0.04629800  1
  H  994  1  0.63786400  0.59930800  0.06548700  1
  H  1001  1  0.69347700  0.05856800  0.42008800  1
  H  1002  1  0.72345800  0.03877000  0.42382900  1
  H  1003  1  0.69127500  0.02502300  0.44082100  1
  H  1008  1  0.63487600  0.01862300  0.34460500  1
  H  1009  1  0.66646100  0.03328300  0.32689100  1
  H  1010  1  0.63776000  0.05253200  0.32697800  1
  H  1017  1  0.19320800  0.47707100  0.93143300  1
  H  1018  1  0.22311100  0.46105400  0.95136200  1
  H  1019  1  0.19081200  0.46431000  0.96496000  1
  H  1024  1  0.13485800  0.36153900  0.97140000  1
  H  1025  1  0.16661300  0.35842600  0.95697800  1
  H  1026  1  0.13800100  0.37768700  0.93750900  1
  H  1033  1  0.19320600  0.91872200  0.58296000  1
  H  1034  1  0.22327500  0.93843300  0.57921700  1
  H  1035  1  0.19110600  0.95227600  0.56225100  1
  H  1040  1  0.13505200  0.95858900  0.65865700  1
  H  1041  1  0.16665100  0.94386600  0.67630500  1
  H  1042  1  0.13788600  0.92467500  0.67622000  1
  H  1049  1  0.19343100  0.57007300  0.49006000  1
  H  1050  1  0.22338700  0.56627900  0.47401600  1
  H  1051  1  0.19117900  0.54931200  0.47728400  1
  H  1056  1  0.13484000  0.64555600  0.37462700  1
  H  1057  1  0.16646100  0.66323200  0.37156200  1
  H  1058  1  0.13778700  0.66319000  0.39089900  1
  H  1065  1  0.15096800  0.56953600  0.93203800  1
  H  1066  1  0.12086900  0.56586800  0.95168900  1
  H  1067  1  0.15307700  0.54902700  0.96562500  1
  H  1072  1  0.20865400  0.64589500  0.97130000  1
  H  1073  1  0.17702400  0.66343900  0.95649500  1
  H  1074  1  0.20586300  0.66333900  0.93737700  1
  H  1081  1  0.15069600  0.47719900  0.58272600  1
  H  1082  1  0.12066400  0.46114500  0.57906600  1
  H  1083  1  0.15287400  0.46415500  0.56219200  1
  H  1088  1  0.20874900  0.36166900  0.65885700  1
  H  1089  1  0.17713600  0.35881300  0.67646500  1
  H  1090  1  0.20592500  0.37807100  0.67637300  1
  H  1097  1  0.15097300  0.91901400  0.49018700  1
  H  1098  1  0.12086000  0.93864800  0.47420700  1
  H  1099  1  0.15305800  0.95260200  0.47710500  1
  H  1104  1  0.20865400  0.95830100  0.37456000  1
  H  1105  1  0.17703900  0.94347700  0.37182600  1
  H  1106  1  0.20588900  0.92437600  0.39104200  1
  H  1113  1  0.65077100  0.40745700  0.07127100  1
  H  1114  1  0.62078600  0.41119100  0.05148300  1
  H  1115  1  0.65304800  0.42801100  0.03770200  1
  H  1120  1  0.70881700  0.33128400  0.03192200  1
  H  1121  1  0.67714000  0.31374000  0.04658100  1
  H  1122  1  0.70587900  0.31374500  0.06583500  1
  H  1129  1  0.65088500  0.05832900  0.51301900  1
  H  1130  1  0.62094600  0.03848000  0.52907900  1
  H  1131  1  0.65325800  0.02476400  0.52603400  1
  H  1136  1  0.70888000  0.01902400  0.62855400  1
  H  1137  1  0.67713600  0.03358100  0.63147400  1
  H  1138  1  0.70583200  0.05292800  0.61223700  1
  H  1145  1  0.89050000  0.58725400  0.00176200  1
  H  1146  1  0.89416300  0.57641400  0.03471700  1
  H  1147  1  0.92446400  0.57632600  0.01699500  1
  H  1151  1  0.92594100  0.70361300  0.96825300  1
  H  1157  1  0.89054900  0.98870300  0.40279000  1
  H  1158  1  0.89424000  0.02165800  0.38067500  1
  H  1159  1  0.92452800  0.00391300  0.39848900  1
  H  1164  1  0.96060800  0.96933500  0.31668900  1
  H  1165  1  0.93170700  0.98757500  0.29689000  1
  H  1166  1  0.92594200  0.95519000  0.31992200  1
  H  1175  1  0.96061400  0.30342300  0.70569500  1
  H  1176  1  0.92598200  0.30666300  0.71665900  1
  H  1180  1  0.39051200  0.38991900  0.00140900  1
  H  1181  1  0.39417800  0.40077000  0.96845100  1
  H  1182  1  0.42447500  0.40086000  0.98617500  1
  H  1187  1  0.46070300  0.28451700  0.02083800  1
  H  1188  1  0.43194000  0.28297600  0.00246300  1
  H  1189  1  0.42598200  0.27357700  0.03483500  1
  H  1196  1  0.39050100  0.98843600  0.60036600  1
  H  1197  1  0.39418800  0.95547800  0.62246100  1
  H  1198  1  0.42447500  0.97322300  0.60464800  1
  H  1207  1  0.39416200  0.60953500  0.41376900  1
  H  1208  1  0.42446700  0.59172300  0.41387000  1
  H  1214  1  0.95357100  0.39086600  0.00040100  1
  H  1215  1  0.94928300  0.40157800  0.96752100  1
  H  1216  1  0.91941500  0.40182000  0.98558700  1
  H  1221  1  0.88220200  0.28546300  0.02186000  1
  H  1222  1  0.90940700  0.28416000  0.00205000  1
  H  1223  1  0.91751500  0.27438800  0.03417000  1
  H  1230  1  0.95329700  0.98779900  0.60010300  1
  H  1231  1  0.94876600  0.95485300  0.62188700  1
  H  1232  1  0.91904200  0.97323300  0.60361900  1
  H  1241  1  0.94899300  0.60895400  0.41522400  1
  H  1242  1  0.91933900  0.59055000  0.41524900  1
  H  1248  1  0.45362000  0.58584600  0.00278500  1
  H  1249  1  0.44895500  0.57489700  0.03567800  1
  H  1250  1  0.41932200  0.57485900  0.01728400  1
  H  1254  1  0.41760800  0.70217700  0.96929500  1
  H  1260  1  0.45367200  0.98977000  0.40321400  1
  H  1261  1  0.44897900  0.02266100  0.38128300  1
  H  1262  1  0.41936400  0.00424600  0.39972100  1
  H  1267  1  0.38224800  0.96835000  0.31930200  1
  H  1268  1  0.40925800  0.98839900  0.29810200  1
  H  1269  1  0.41765800  0.95631100  0.32034400  1
  H  1278  1  0.38227900  0.30616000  0.70419700  1
  H  1279  1  0.41769300  0.30731000  0.71512700  1
  H  1283  1  0.85477700  0.43609500  0.08375400  1
  H  1284  1  0.85864300  0.40259200  0.10313800  1
  H  1285  1  0.87687600  0.42304900  0.11145100  1
  H  1290  1  0.76522300  0.42901200  0.17473600  1
  H  1291  1  0.74612900  0.40976100  0.16538300  1
  H  1292  1  0.74583100  0.44328600  0.14531200  1
  H  1299  1  0.85491600  0.07081300  0.47196800  1
  H  1300  1  0.85877700  0.09031100  0.48596100  1
  H  1301  1  0.87694200  0.09855100  0.45718000  1
  H  1306  1  0.76502400  0.16145800  0.38808000  1
  H  1307  1  0.74593400  0.15202000  0.41670300  1
  H  1308  1  0.74580500  0.13194900  0.40324500  1
  H  1315  1  0.35507900  0.54121000  0.91914500  1
  H  1316  1  0.35887400  0.57471400  0.89970000  1
  H  1317  1  0.37702200  0.55424600  0.89135300  1
  H  1322  1  0.26487200  0.54800900  0.82868500  1
  H  1323  1  0.24586000  0.56720700  0.83815200  1
  H  1324  1  0.24572800  0.53368200  0.85823300  1
  H  1331  1  0.35498400  0.90625500  0.53146000  1
  H  1332  1  0.35879600  0.88692000  0.51728200  1
  H  1333  1  0.37699800  0.87850300  0.54609000  1
  H  1338  1  0.26510500  0.81544800  0.61511600  1
  H  1339  1  0.24608000  0.82485800  0.58646900  1
  H  1340  1  0.24580100  0.84491700  0.59993500  1
  H  1347  1  0.35483900  0.51817800  0.55427300  1
  H  1348  1  0.35869400  0.50417900  0.58776400  1
  H  1349  1  0.37687300  0.53295400  0.56723200  1
  H  1354  1  0.26496000  0.60208500  0.56100500  1
  H  1355  1  0.24589600  0.57345900  0.58024600  1
  H  1356  1  0.24571500  0.58687000  0.54672300  1
  H  1363  1  0.98946600  0.51678000  0.91955100  1
  H  1364  1  0.98556900  0.50299300  0.89987200  1
  H  1365  1  0.96708800  0.53153300  0.89204200  1
  H  1370  1  0.07789500  0.60204700  0.82847000  1
  H  1371  1  0.09718100  0.57365600  0.83727100  1
  H  1372  1  0.09760900  0.58667300  0.85771900  1
  H  1379  1  0.98942000  0.54260200  0.52973400  1
  H  1380  1  0.98564300  0.57606600  0.51604500  1
  H  1381  1  0.96713700  0.55534200  0.54456400  1
  H  1386  1  0.07813300  0.54793300  0.61510700  1
  H  1387  1  0.09752200  0.56734500  0.58672500  1
  H  1388  1  0.09762000  0.53386700  0.59980200  1
  H  1395  1  0.98933600  0.90633100  0.55541400  1
  H  1396  1  0.98554500  0.88670400  0.58889700  1
  H  1397  1  0.96704600  0.87876100  0.56827900  1
  H  1402  1  0.07804000  0.81542500  0.56121500  1
  H  1403  1  0.09730600  0.82431000  0.58075100  1
  H  1404  1  0.09765200  0.84473100  0.54728300  1
  H  1411  1  0.48923700  0.46022600  0.08394500  1
  H  1412  1  0.48545500  0.47396400  0.10367900  1
  H  1413  1  0.46702200  0.44539300  0.11155500  1
  H  1418  1  0.57828100  0.37513500  0.17450400  1
  H  1419  1  0.59752400  0.40357800  0.16557500  1
  H  1420  1  0.59774400  0.39056300  0.14512300  1
  H  1427  1  0.48949000  0.07079600  0.44749900  1
  H  1428  1  0.48565200  0.09058300  0.41404000  1
  H  1429  1  0.46718400  0.09834700  0.43480500  1
  H  1434  1  0.57819700  0.16150900  0.44214100  1
  H  1435  1  0.59749800  0.15267100  0.42258400  1
  H  1436  1  0.59776100  0.13218200  0.45604500  1
  C  1  1  0.84082600  0.30860300  0.57565100  1
  C  2  1  0.85224700  0.30967100  0.59675300  1
  C  3  1  0.87669000  0.29516600  0.61015800  1
  C  4  1  0.89051700  0.27953400  0.60213700  1
  C  5  1  0.87930600  0.27803700  0.58113700  1
  C  6  1  0.85455900  0.29235100  0.56833300  1
  C  9  1  0.81639400  0.32367000  0.56195400  1
  C  10  1  0.79276600  0.32727100  0.57470300  1
  C  11  1  0.76862300  0.34218100  0.56117700  1
  C  12  1  0.76732500  0.35253100  0.53430300  1
  C  13  1  0.79077100  0.34922500  0.52125900  1
  C  14  1  0.81520600  0.33534600  0.53503800  1
  C  20  1  0.88824600  0.29797800  0.62954300  1
  C  21  1  0.74512900  0.34345500  0.57461600  1
  C  22  1  0.79047200  0.36042200  0.49512500  1
  C  26  1  0.50240100  0.56225500  0.32273800  1
  C  27  1  0.49155400  0.58426200  0.32243000  1
  C  28  1  0.46792400  0.59804000  0.30684200  1
  C  29  1  0.45401300  0.58930900  0.29184000  1
  C  30  1  0.46462300  0.56741200  0.29168200  1
  C  31  1  0.48876700  0.55437600  0.30686000  1
  C  34  1  0.52668300  0.54859800  0.33817100  1
  C  35  1  0.55046300  0.56142600  0.34146200  1
  C  36  1  0.57477900  0.54799200  0.35615400  1
  C  37  1  0.57614100  0.52111900  0.36651800  1
  C  38  1  0.55254700  0.50797600  0.36358700  1
  C  39  1  0.52790000  0.52165800  0.35006100  1
  C  45  1  0.45754300  0.61902000  0.30741800  1
  C  46  1  0.59839200  0.56150000  0.35711400  1
  C  47  1  0.55307800  0.48186800  0.37454100  1
  C  51  1  0.50647300  0.30912700  0.57726300  1
  C  52  1  0.49191900  0.31060900  0.59696100  1
  C  53  1  0.46700700  0.29587700  0.60868900  1
  C  54  1  0.45621100  0.27930500  0.60043100  1
  C  55  1  0.47095300  0.27676800  0.58117800  1
  C  56  1  0.49591000  0.29176600  0.57000400  1
  C  59  1  0.53024000  0.32559900  0.56428900  1
  C  60  1  0.55157700  0.33119000  0.57754600  1
  C  61  1  0.57419400  0.34877800  0.56470700  1
  C  62  1  0.57529300  0.36082100  0.53755900  1
  C  63  1  0.55479400  0.35474700  0.52403900  1
  C  64  1  0.53224400  0.33764200  0.53742200  1
  C  70  1  0.45288600  0.29871300  0.62722500  1
  C  71  1  0.59506900  0.35247600  0.57926100  1
  C  72  1  0.55550400  0.36697700  0.49778000  1
  C  76  1  0.83850700  0.56397800  0.32305900  1
  C  77  1  0.85206300  0.58496700  0.32292300  1
  C  78  1  0.87641900  0.59704500  0.30745700  1
  C  79  1  0.88800100  0.58760500  0.29213000  1
  C  80  1  0.87436300  0.56698200  0.29132400  1
  C  81  1  0.84969400  0.55569900  0.30665600  1
  C  84  1  0.81481200  0.55102700  0.33977000  1
  C  85  1  0.79306400  0.56440200  0.34479100  1
  C  86  1  0.77012700  0.55170900  0.36207000  1
  C  87  1  0.76902400  0.52454800  0.37431700  1
  C  88  1  0.78994100  0.51085900  0.36887800  1
  C  89  1  0.81287600  0.52411600  0.35221000  1
  C  95  1  0.88945400  0.61713500  0.30827400  1
  C  96  1  0.74891300  0.56641900  0.36517000  1
  C  97  1  0.78897100  0.48458900  0.38106000  1
  C  101  1  0.69985000  0.40974700  0.52893800  1
  C  102  1  0.68836300  0.38860500  0.55315900  1
  C  107  1  0.64515000  0.36686800  0.57540200  1
  C  108  1  0.66181500  0.34837300  0.59599000  1
  C  109  1  0.64965900  0.32559700  0.61837000  1
  C  114  1  0.70514700  0.36880300  0.57247700  1
  C  117  1  0.64437700  0.51594100  0.42307300  1
  C  118  1  0.65575100  0.54012300  0.40178500  1
  C  123  1  0.69885000  0.56240200  0.37979400  1
  C  124  1  0.68207300  0.58289700  0.36130300  1
  C  125  1  0.69408200  0.60526700  0.33843500  1
  C  130  1  0.63885500  0.55936900  0.38202500  1
  C  133  1  0.90493300  0.37566800  0.59984500  1
  C  134  1  0.91267100  0.35609300  0.62626100  1
  C  139  1  0.90735800  0.32963100  0.63763200  1
  C  142  1  0.43476200  0.62820500  0.33803100  1
  C  143  1  0.42942300  0.65480100  0.32651500  1
  C  144  1  0.43754700  0.67407000  0.30017000  1
  C  150  1  0.90922900  0.62697200  0.33938000  1
  C  151  1  0.91384100  0.65366500  0.32793200  1
  C  152  1  0.90523200  0.67277500  0.30166600  1
  C  157  1  0.43855900  0.37652500  0.59826600  1
  C  158  1  0.43057400  0.35706900  0.62465800  1
  C  163  1  0.43509600  0.33049500  0.63595500  1
  C  165  1  0.85710900  0.45474600  0.43349000  1
  C  166  1  0.83223800  0.43929800  0.43370600  1
  C  172  1  0.48710200  0.41920800  0.46901100  1
  C  173  1  0.51175500  0.41964500  0.45325100  1
  C  180  1  0.89053300  0.26144800  0.57401200  1
  C  183  1  0.45380000  0.55998000  0.27516600  1
  C  186  1  0.46333900  0.25911900  0.57383300  1
  C  189  1  0.88295800  0.55845700  0.27489100  1
  C  191  1  0.91264600  0.52604200  0.25122800  1
  C  192  1  0.90515200  0.55161600  0.22987700  1
  C  197  1  0.89673900  0.57681100  0.18473000  1
  C  198  1  0.89214700  0.59874100  0.18686900  1
  C  199  1  0.88456700  0.62405100  0.16504400  1
  C  204  1  0.89863000  0.57330800  0.23217700  1
  C  206  1  0.90303700  0.19812700  0.56342200  1
  C  209  1  0.89655400  0.21718200  0.58971000  1
  C  210  1  0.89092600  0.19299700  0.61114200  1
  C  211  1  0.88360000  0.18905800  0.63667200  1
  C  216  1  0.89576600  0.17403300  0.58466900  1
  C  218  1  0.43806700  0.55184500  0.20999600  1
  C  221  1  0.44729100  0.57622700  0.23064800  1
  C  222  1  0.45136900  0.59851900  0.20675700  1
  C  223  1  0.45911000  0.62361700  0.20373900  1
  C  228  1  0.44372700  0.57398200  0.18609100  1
  C  230  1  0.43010500  0.23850000  0.53954400  1
  C  231  1  0.43793900  0.21692400  0.56489300  1
  C  236  1  0.44720700  0.17189800  0.58922400  1
  C  237  1  0.45110100  0.17343900  0.61156900  1
  C  238  1  0.45882100  0.15134200  0.63666200  1
  C  243  1  0.44338800  0.21862800  0.58709100  1
  C  245  1  0.80616800  0.40007700  0.45863800  1
  C  246  1  0.78539100  0.40777200  0.43889200  1
  C  247  1  0.75913300  0.39330500  0.44019500  1
  C  252  1  0.81078200  0.44761800  0.41457500  1
  C  254  1  0.53747200  0.44498800  0.41391500  1
  C  255  1  0.55821800  0.42527800  0.42119700  1
  C  256  1  0.58429500  0.42675400  0.40645700  1
  C  261  1  0.53321300  0.40055400  0.46117400  1
  C  267  1  0.87678100  0.59695300  0.08649600  1
  C  268  1  0.89044500  0.58888900  0.11023100  1
  C  269  1  0.87910800  0.56790100  0.13268700  1
  C  270  1  0.85437900  0.55515900  0.13106300  1
  C  273  1  0.89020100  0.56074600  0.15645600  1
  C  274  1  0.88841700  0.61638200  0.06433700  1
  C  277  1  0.46795200  0.07390200  0.61101500  1
  C  278  1  0.45413200  0.09767700  0.60226300  1
  C  279  1  0.46482600  0.11970200  0.58038100  1
  C  280  1  0.48896800  0.11749000  0.56738500  1
  C  283  1  0.45412300  0.14368800  0.57294100  1
  C  284  1  0.45747800  0.05237200  0.63196600  1
  C  287  1  0.46699600  0.59572500  0.08720000  1
  C  288  1  0.45603800  0.58730100  0.11201200  1
  C  289  1  0.47068100  0.56793700  0.13378400  1
  C  290  1  0.49571100  0.55683800  0.12998600  1
  C  293  1  0.46283200  0.56036400  0.15876500  1
  C  294  1  0.45291900  0.61429800  0.06582800  1
  C  297  1  0.87611100  0.07394400  0.61081600  1
  C  298  1  0.88879800  0.09834900  0.60095100  1
  C  299  1  0.87636200  0.11965600  0.57946200  1
  C  300  1  0.85145500  0.11621200  0.56806800  1
  C  303  1  0.88713500  0.14399200  0.56994400  1
  C  304  1  0.88858200  0.05291400  0.63112200  1
  C  308  1  0.90959100  0.20300000  0.53746000  1
  C  312  1  0.43003000  0.52651000  0.21383900  1
  C  318  1  0.43747300  0.00456700  0.68700500  1
  C  322  1  0.90525200  0.00386800  0.68643700  1
  C  331  1  0.93739100  0.69006700  0.98556100  1
  C  333  1  0.40518900  0.68846400  0.98585200  1
  C  336  1  0.42935800  0.99749000  0.66773600  1
  C  337  1  0.91369700  0.99686900  0.66717800  1
  C  339  1  0.84079300  0.56252200  0.10742400  1
  C  340  1  0.85233300  0.58360300  0.08530100  1
  C  342  1  0.81636300  0.54888200  0.10597000  1
  C  343  1  0.79276400  0.56168200  0.08960400  1
  C  344  1  0.76857700  0.54819700  0.08822300  1
  C  345  1  0.76721300  0.52132600  0.10475700  1
  C  346  1  0.79064500  0.50823600  0.12110200  1
  C  347  1  0.81512500  0.52196900  0.12119400  1
  C  352  1  0.74510100  0.56166800  0.07351500  1
  C  353  1  0.79028900  0.48211000  0.13604900  1
  C  356  1  0.84080000  0.09433800  0.32176500  1
  C  357  1  0.85230900  0.07219600  0.32282800  1
  C  358  1  0.87676100  0.07336100  0.30830100  1
  C  359  1  0.89046800  0.09706500  0.29262500  1
  C  360  1  0.87915200  0.11954300  0.29111000  1
  C  361  1  0.85441600  0.11795600  0.30546800  1
  C  364  1  0.81635400  0.09290100  0.33684500  1
  C  365  1  0.79276700  0.07651900  0.34042200  1
  C  366  1  0.76858600  0.07509600  0.35531500  1
  C  367  1  0.76721700  0.09161200  0.36567000  1
  C  368  1  0.79064300  0.10796200  0.36242200  1
  C  369  1  0.81510900  0.10810800  0.34855200  1
  C  376  1  0.89020900  0.14330400  0.27442300  1
  C  377  1  0.88839100  0.05119100  0.31108400  1
  C  378  1  0.74512300  0.06040400  0.35647300  1
  C  379  1  0.79030200  0.12282500  0.37369200  1
  C  384  1  0.34068600  0.41462000  0.89583800  1
  C  385  1  0.35231300  0.39356100  0.91792800  1
  C  386  1  0.37674800  0.38023500  0.91665400  1
  C  387  1  0.39026600  0.38828400  0.89286100  1
  C  388  1  0.37882300  0.40924500  0.87044600  1
  C  389  1  0.35413300  0.42197400  0.87214800  1
  C  392  1  0.31627300  0.42823300  0.89735800  1
  C  393  1  0.29271500  0.41540300  0.91376000  1
  C  394  1  0.26850500  0.42885600  0.91516000  1
  C  395  1  0.26708400  0.45571900  0.89860700  1
  C  396  1  0.29050000  0.46884100  0.88225700  1
  C  397  1  0.31500200  0.45514400  0.88214100  1
  C  404  1  0.38974600  0.41638300  0.84663600  1
  C  405  1  0.38849800  0.36084600  0.93878200  1
  C  406  1  0.24504400  0.41530200  0.92983200  1
  C  407  1  0.29011200  0.49496900  0.86734500  1
  C  412  1  0.34079000  0.88274700  0.68131400  1
  C  413  1  0.35239700  0.90486000  0.68024800  1
  C  414  1  0.37683900  0.90362300  0.69482200  1
  C  415  1  0.39041500  0.87985600  0.71054300  1
  C  416  1  0.37900800  0.85741800  0.71202200  1
  C  417  1  0.35429500  0.85908000  0.69763200  1
  C  420  1  0.31636600  0.88422400  0.66620900  1
  C  421  1  0.29278600  0.90060500  0.66264200  1
  C  422  1  0.26858000  0.90197300  0.64780300  1
  C  423  1  0.26717900  0.88541600  0.63749500  1
  C  424  1  0.29059900  0.86906000  0.64074700  1
  C  425  1  0.31509900  0.86898000  0.65454300  1
  C  432  1  0.39004600  0.83363100  0.72864300  1
  C  433  1  0.38857100  0.92576000  0.69206700  1
  C  434  1  0.24511500  0.91668800  0.64657400  1
  C  435  1  0.29020900  0.85409000  0.62958900  1
  C  440  1  0.34069700  0.66827900  0.42764700  1
  C  441  1  0.35232200  0.66726400  0.40658000  1
  C  442  1  0.37676300  0.68185700  0.39326900  1
  C  443  1  0.39029000  0.69757900  0.40133900  1
  C  444  1  0.37885100  0.69901900  0.42231200  1
  C  445  1  0.35415000  0.68459400  0.43502400  1
  C  448  1  0.31628000  0.65314700  0.44125000  1
  C  449  1  0.29271900  0.64959800  0.42840600  1
  C  450  1  0.26851100  0.63474200  0.44184800  1
  C  451  1  0.26708900  0.62440400  0.46871700  1
  C  452  1  0.29050700  0.62761300  0.48185000  1
  C  453  1  0.31500800  0.64142900  0.46816100  1
  C  460  1  0.38978500  0.71567100  0.42947400  1
  C  461  1  0.38851500  0.67913000  0.37387200  1
  C  462  1  0.24506100  0.63361700  0.42829100  1
  C  463  1  0.29012000  0.61637400  0.50797800  1
  C  468  1  0.00242600  0.66741100  0.89642200  1
  C  469  1  0.99157800  0.66772700  0.91811500  1
  C  470  1  0.96796600  0.68333200  0.91629100  1
  C  471  1  0.95405800  0.69833700  0.89255900  1
  C  472  1  0.96466500  0.69848400  0.87051000  1
  C  473  1  0.98879900  0.68329000  0.87266000  1
  C  476  1  0.02669900  0.65196900  0.89820700  1
  C  477  1  0.05048100  0.64868300  0.91432400  1
  C  478  1  0.07478900  0.63397800  0.91559600  1
  C  479  1  0.07614000  0.62359100  0.89910800  1
  C  480  1  0.05254500  0.62651500  0.88303800  1
  C  481  1  0.02790500  0.64005900  0.88317600  1
  C  488  1  0.95384700  0.71499900  0.84655900  1
  C  489  1  0.95757300  0.68275300  0.93783800  1
  C  490  1  0.09840300  0.63302500  0.93005800  1
  C  491  1  0.05305700  0.61553000  0.86791500  1
  C  496  1  0.00236500  0.41466600  0.68055100  1
  C  497  1  0.99168300  0.39259900  0.68089000  1
  C  498  1  0.96807100  0.37875800  0.69645400  1
  C  499  1  0.95394800  0.38747200  0.71137300  1
  C  500  1  0.96438100  0.40942300  0.71149500  1
  C  501  1  0.98854800  0.42252600  0.69637000  1
  C  504  1  0.02666000  0.42837000  0.66515400  1
  C  505  1  0.05047500  0.41557700  0.66185700  1
  C  506  1  0.07475200  0.42903700  0.64711700  1
  C  507  1  0.07604700  0.45591500  0.63670900  1
  C  508  1  0.05242400  0.46903000  0.63964100  1
  C  509  1  0.02781900  0.45531600  0.65323200  1
  C  516  1  0.95351100  0.41678000  0.72804100  1
  C  517  1  0.95781800  0.35779300  0.69582900  1
  C  518  1  0.09837900  0.41550600  0.64622200  1
  C  519  1  0.05287100  0.49514400  0.62857900  1
  C  524  1  0.00244300  0.88337600  0.42790800  1
  C  525  1  0.99160900  0.90507600  0.40589600  1
  C  526  1  0.96800700  0.90325700  0.39210400  1
  C  527  1  0.95408100  0.87953600  0.40082400  1
  C  528  1  0.96467800  0.85748400  0.42272600  1
  C  529  1  0.98880900  0.85962000  0.43577900  1
  C  532  1  0.02671400  0.88515600  0.44157000  1
  C  533  1  0.05049200  0.90128200  0.42874400  1
  C  534  1  0.07479700  0.90254900  0.44218000  1
  C  535  1  0.07615500  0.88604300  0.46905300  1
  C  536  1  0.05256200  0.86996100  0.48219300  1
  C  537  1  0.02792300  0.87010800  0.46850900  1
  C  544  1  0.95385700  0.83354200  0.43014000  1
  C  545  1  0.95761900  0.92480700  0.37115000  1
  C  546  1  0.09840700  0.91702200  0.42867400  1
  C  547  1  0.05308700  0.85481000  0.50830000  1
  C  552  1  0.50248300  0.30975900  0.10670600  1
  C  553  1  0.49157300  0.30944400  0.08503000  1
  C  554  1  0.46795200  0.29382500  0.08689300  1
  C  555  1  0.45413000  0.27878700  0.11066300  1
  C  556  1  0.46480500  0.27863800  0.13269500  1
  C  557  1  0.48893300  0.29385200  0.13049800  1
  C  560  1  0.52676000  0.32521700  0.10487400  1
  C  561  1  0.55050200  0.32850600  0.08871800  1
  C  562  1  0.57483100  0.34320600  0.08741600  1
  C  563  1  0.57623900  0.35357600  0.10391700  1
  C  564  1  0.55266300  0.35067800  0.11999700  1
  C  565  1  0.52800600  0.33713600  0.11989300  1
  C  572  1  0.45410000  0.26207800  0.15667100  1
  C  573  1  0.45750200  0.29440600  0.06535500  1
  C  574  1  0.59841500  0.34406800  0.07296300  1
  C  575  1  0.55321800  0.36169900  0.13508400  1
  C  580  1  0.50250900  0.09369000  0.57528900  1
  C  581  1  0.49158400  0.07202400  0.59728300  1
  C  583  1  0.52678200  0.09183600  0.56167000  1
  C  584  1  0.55052200  0.07567600  0.57453800  1
  C  585  1  0.57484400  0.07435700  0.56114300  1
  C  586  1  0.57624300  0.09084200  0.53427000  1
  C  587  1  0.55266700  0.10692100  0.52108600  1
  C  588  1  0.52801900  0.10683700  0.53473100  1
  C  593  1  0.59843900  0.05991700  0.57473500  1
  C  594  1  0.55321100  0.12199900  0.49497800  1
  C  597  1  0.00582200  0.41288000  0.89759900  1
  C  598  1  0.99253500  0.39215200  0.91892700  1
  C  599  1  0.96737600  0.38032600  0.91645000  1
  C  600  1  0.95472400  0.38962800  0.89210000  1
  C  601  1  0.96772400  0.41031100  0.87041700  1
  C  602  1  0.99321900  0.42137800  0.87335500  1
  C  605  1  0.02986800  0.42589300  0.90080900  1
  C  606  1  0.05155900  0.41266000  0.91933400  1
  C  607  1  0.07416700  0.42548000  0.92412700  1
  C  608  1  0.07515100  0.45263400  0.90918300  1
  C  609  1  0.05448400  0.46617400  0.88976700  1
  C  610  1  0.03179300  0.45280200  0.88620700  1
  C  617  1  0.95658500  0.41973700  0.84624000  1
  C  618  1  0.95401300  0.36149100  0.93803600  1
  C  619  1  0.09508500  0.41092600  0.94233100  1
  C  620  1  0.05519000  0.49244400  0.87575200  1
  C  625  1  0.00642200  0.88478900  0.68100200  1
  C  626  1  0.99193900  0.90595800  0.67961700  1
  C  627  1  0.96697300  0.90294900  0.69429500  1
  C  628  1  0.95603100  0.87813300  0.71068900  1
  C  629  1  0.97068800  0.85636600  0.71310400  1
  C  630  1  0.99572500  0.86017200  0.69821200  1
  C  633  1  0.03022000  0.88828800  0.66455200  1
  C  634  1  0.05157600  0.90710800  0.65901100  1
  C  635  1  0.07420400  0.91186800  0.64143000  1
  C  636  1  0.07531500  0.89678700  0.62936100  1
  C  637  1  0.05480100  0.87721300  0.63539400  1
  C  638  1  0.03222500  0.87350200  0.65246900  1
  C  645  1  0.96284900  0.83138400  0.73051800  1
  C  646  1  0.95290600  0.92430700  0.69153300  1
  C  647  1  0.09506800  0.93012000  0.63775300  1
  C  648  1  0.05552200  0.86320000  0.62314700  1
  C  653  1  0.00638300  0.66804400  0.42596300  1
  C  654  1  0.99197000  0.66666667  0.40614733  1
  C  655  1  0.96697800  0.68131100  0.39445600  1
  C  656  1  0.95589200  0.69760400  0.40294700  1
  C  657  1  0.97045000  0.69997200  0.42236500  1
  C  658  1  0.99554800  0.68517300  0.43342100  1
  C  661  1  0.03019100  0.65161500  0.43895400  1
  C  662  1  0.05156700  0.64602600  0.42572600  1
  C  663  1  0.07419100  0.62845900  0.43859400  1
  C  664  1  0.07529200  0.61645500  0.46573700  1
  C  665  1  0.05478400  0.62254600  0.47923500  1
  C  666  1  0.03220300  0.63959900  0.46582400  1
  C  673  1  0.96237400  0.71719700  0.43010200  1
  C  674  1  0.95295000  0.67851900  0.37586000  1
  C  675  1  0.09505100  0.62471400  0.42407000  1
  C  676  1  0.05549800  0.61039400  0.50550000  1
  C  681  1  0.50642100  0.56424300  0.10537500  1
  C  682  1  0.49196000  0.58404300  0.08420300  1
  C  684  1  0.53021000  0.55127700  0.10188300  1
  C  685  1  0.55156900  0.56454100  0.08305900  1
  C  686  1  0.57419200  0.55170900  0.07830800  1
  C  687  1  0.57530200  0.52456100  0.09340700  1
  C  688  1  0.55479200  0.51103200  0.11298700  1
  C  689  1  0.53221600  0.52440700  0.11668400  1
  C  694  1  0.59505600  0.56627500  0.06004900  1
  C  695  1  0.55551900  0.48477100  0.12701900  1
  C  698  1  0.50646800  0.09243900  0.32205500  1
  C  699  1  0.49195100  0.07123900  0.32354600  1
  C  700  1  0.46700500  0.07420200  0.30886200  1
  C  701  1  0.45609000  0.09900600  0.29237700  1
  C  702  1  0.47076900  0.12081300  0.28985600  1
  C  703  1  0.49579800  0.11703900  0.30475500  1
  C  706  1  0.53025300  0.08899300  0.33850200  1
  C  707  1  0.55159000  0.07013200  0.34415300  1
  C  708  1  0.57419600  0.06543500  0.36173500  1
  C  709  1  0.57529300  0.08059900  0.37371200  1
  C  710  1  0.55481100  0.10022500  0.36756100  1
  C  711  1  0.53226700  0.10388800  0.35047100  1
  C  718  1  0.46295900  0.14579500  0.27236100  1
  C  719  1  0.45292100  0.05281300  0.31171100  1
  C  720  1  0.59505600  0.04715300  0.36551500  1
  C  721  1  0.55551900  0.11435700  0.37969000  1
  C  726  1  0.83860800  0.30991600  0.10483600  1
  C  727  1  0.85178800  0.30953600  0.08394500  1
  C  728  1  0.87622000  0.29418800  0.08717300  1
  C  729  1  0.88840400  0.27932200  0.11175600  1
  C  730  1  0.87538100  0.27907800  0.13308800  1
  C  731  1  0.85050300  0.29404700  0.12937000  1
  C  734  1  0.81482700  0.32655600  0.10117600  1
  C  735  1  0.79300400  0.33157200  0.08283100  1
  C  736  1  0.77010100  0.34888300  0.07824100  1
  C  737  1  0.76903100  0.36113200  0.09315000  1
  C  738  1  0.78995400  0.35566200  0.11227700  1
  C  739  1  0.81289800  0.33901900  0.11563300  1
  C  746  1  0.88541700  0.26378400  0.15767900  1
  C  747  1  0.88903600  0.29494800  0.06624000  1
  C  748  1  0.74889600  0.35206300  0.06039900  1
  C  749  1  0.78899500  0.36777500  0.12643400  1
  C  754  1  0.83895700  0.09183800  0.57698200  1
  C  755  1  0.85169600  0.07090500  0.59854900  1
  C  757  1  0.81506300  0.08831200  0.56398700  1
  C  758  1  0.79310400  0.07010100  0.57731900  1
  C  759  1  0.77016200  0.06552600  0.56462000  1
  C  760  1  0.76911500  0.08039100  0.53746100  1
  C  761  1  0.79010800  0.09944200  0.52378700  1
  C  762  1  0.81313200  0.10271900  0.53705900  1
  C  767  1  0.74892600  0.04772300  0.57929900  1
  C  768  1  0.78913700  0.11357200  0.49751500  1
  C  771  1  0.33844600  0.66710400  0.89848700  1
  C  772  1  0.35211700  0.66713500  0.91934000  1
  C  773  1  0.37643500  0.68264400  0.91591700  1
  C  774  1  0.38782200  0.69815000  0.89110100  1
  C  775  1  0.37398500  0.69917200  0.86963000  1
  C  776  1  0.34940300  0.68370600  0.87377000  1
  C  779  1  0.31477700  0.65037900  0.90225800  1
  C  780  1  0.29306300  0.64531200  0.92068800  1
  C  781  1  0.27012000  0.62804900  0.92524500  1
  C  782  1  0.26899700  0.61585100  0.91028300  1
  C  783  1  0.28989600  0.62133300  0.89112900  1
  C  784  1  0.31282600  0.63800000  0.88773000  1
  C  791  1  0.38206100  0.71603400  0.84457500  1
  C  792  1  0.38952100  0.68180800  0.93681800  1
  C  793  1  0.24891400  0.62492200  0.94306900  1
  C  794  1  0.28892200  0.60918900  0.87700900  1
  C  799  1  0.33843000  0.41314500  0.68018400  1
  C  800  1  0.35207100  0.39225700  0.68019300  1
  C  801  1  0.37640300  0.38016200  0.69567800  1
  C  802  1  0.38788500  0.38949100  0.71113400  1
  C  803  1  0.37410800  0.40996500  0.71214900  1
  C  804  1  0.34947900  0.42127300  0.69674800  1
  C  807  1  0.31475300  0.42612800  0.66347600  1
  C  808  1  0.29302400  0.41281100  0.65836000  1
  C  809  1  0.27009100  0.42556300  0.64110300  1
  C  810  1  0.26899300  0.45271800  0.62895100  1
  C  811  1  0.28988500  0.46634400  0.63449800  1
  C  812  1  0.31280600  0.45303300  0.65115800  1
  C  819  1  0.38235000  0.41824900  0.72890400  1
  C  820  1  0.38945600  0.36009900  0.69482900  1
  C  821  1  0.24887800  0.41092000  0.63791000  1
  C  822  1  0.28893100  0.49261000  0.62244400  1
  C  827  1  0.33841800  0.88548300  0.42614300  1
  C  828  1  0.35216000  0.90634400  0.40532600  1
  C  829  1  0.37645000  0.90290800  0.39322000  1
  C  830  1  0.38771900  0.87806600  0.40243400  1
  C  831  1  0.37379300  0.85657900  0.42280100  1
  C  832  1  0.34925900  0.86075000  0.43416400  1
  C  835  1  0.31477100  0.88926700  0.43910200  1
  C  836  1  0.29307300  0.90771700  0.42574200  1
  C  837  1  0.27014100  0.91227800  0.43845300  1
  C  838  1  0.26902700  0.89731900  0.46561200  1
  C  839  1  0.28991900  0.87815500  0.47927800  1
  C  840  1  0.31282800  0.87473100  0.46600600  1
  C  847  1  0.38168100  0.83149900  0.43084500  1
  C  848  1  0.38957900  0.92381300  0.37319000  1
  C  849  1  0.24893200  0.93010300  0.42376100  1
  C  850  1  0.28895700  0.86403900  0.50554300  1
  C  855  1  0.91144100  0.23800000  0.21542500  1
  C  856  1  0.90417800  0.21685000  0.21082500  1
  C  861  1  0.89707000  0.17156000  0.23017800  1
  C  862  1  0.89150600  0.17414800  0.20605000  1
  C  863  1  0.88398600  0.15248800  0.20227900  1
  C  868  1  0.89666700  0.21957100  0.18682600  1
  C  871  1  0.41341800  0.45108300  0.75211100  1
  C  872  1  0.40534000  0.42555100  0.77324200  1
  C  877  1  0.39641400  0.40039400  0.81831500  1
  C  878  1  0.39222400  0.37840700  0.81619800  1
  C  879  1  0.38456500  0.35309500  0.83797800  1
  C  884  1  0.39945600  0.40373800  0.77097500  1
  C  887  1  0.41336000  0.73904700  0.78859900  1
  C  888  1  0.40532500  0.76021800  0.79294900  1
  C  893  1  0.39654600  0.80531600  0.77297600  1
  C  894  1  0.39231700  0.80323800  0.79705900  1
  C  895  1  0.38471200  0.82505500  0.80054800  1
  C  900  1  0.39941900  0.75799600  0.81700700  1
  C  903  1  0.41344900  0.77565900  0.46405300  1
  C  904  1  0.40546800  0.77997700  0.43853300  1
  C  909  1  0.39659800  0.75998100  0.41344400  1
  C  910  1  0.39249800  0.78406500  0.39140600  1
  C  911  1  0.38487800  0.78754900  0.36610400  1
  C  916  1  0.39970600  0.80403900  0.41665800  1
  C  919  1  0.93006700  0.77630400  0.75176700  1
  C  920  1  0.93810700  0.78015500  0.77325400  1
  C  925  1  0.94732700  0.75951500  0.81828700  1
  C  926  1  0.95140100  0.78341000  0.81668100  1
  C  927  1  0.95913400  0.78643500  0.83875900  1
  C  932  1  0.94377000  0.80406300  0.77147700  1
  C  935  1  0.93431000  0.45269700  0.78732900  1
  C  936  1  0.94091200  0.42682500  0.79196200  1
  C  941  1  0.94762800  0.40101100  0.77244600  1
  C  942  1  0.95311900  0.37937300  0.79651800  1
  C  943  1  0.96045800  0.35396200  0.80014200  1
  C  948  1  0.94803700  0.40537100  0.81598600  1
  C  951  1  0.92992100  0.73882500  0.46364800  1
  C  952  1  0.93809300  0.76025200  0.43831500  1
  C  957  1  0.94740900  0.80526700  0.41390100  1
  C  958  1  0.95155400  0.80362400  0.39164100  1
  C  959  1  0.95934900  0.82567500  0.36654200  1
  C  964  1  0.94385000  0.75842600  0.41622300  1
  C  967  1  0.42987200  0.20074000  0.25140900  1
  C  968  1  0.43787200  0.19692400  0.22989200  1
  C  973  1  0.44726900  0.21758500  0.18488700  1
  C  974  1  0.45125700  0.19369000  0.18647000  1
  C  975  1  0.45907100  0.19067400  0.16440200  1
  C  980  1  0.44343300  0.17301400  0.23164400  1
  C  983  1  0.69978300  0.51597000  0.05297900  1
  C  984  1  0.68830500  0.54019700  0.04989300  1
  C  989  1  0.64510400  0.56242300  0.04944700  1
  C  990  1  0.66177400  0.58302300  0.04731700  1
  C  991  1  0.64963600  0.60539900  0.04773100  1
  C  996  1  0.70509800  0.55953500  0.05032700  1
  C  999  1  0.69996400  0.04004600  0.42270900  1
  C  1000  1  0.68840200  0.03697100  0.40158700  1
  C  1005  1  0.64512800  0.03660200  0.37985000  1
  C  1006  1  0.66172900  0.03437300  0.36140300  1
  C  1007  1  0.64951000  0.03476300  0.33864900  1
  C  1012  1  0.70513700  0.03730100  0.38183600  1
  C  1015  1  0.19962800  0.46119300  0.94999300  1
  C  1016  1  0.18814800  0.43697300  0.95306500  1
  C  1021  1  0.14497800  0.41481500  0.95327700  1
  C  1022  1  0.16166900  0.39411300  0.95567200  1
  C  1023  1  0.14959700  0.37167800  0.95533300  1
  C  1028  1  0.20498000  0.41753800  0.95285700  1
  C  1031  1  0.19977900  0.93722100  0.58035000  1
  C  1032  1  0.18830600  0.94030400  0.60149400  1
  C  1037  1  0.14511200  0.94073600  0.62328800  1
  C  1038  1  0.16178600  0.94286300  0.64175900  1
  C  1039  1  0.14965100  0.94243600  0.66455700  1
  C  1044  1  0.20510500  0.93986800  0.62126500  1
  C  1047  1  0.19989800  0.56742300  0.47417200  1
  C  1048  1  0.18834700  0.58853700  0.44996400  1
  C  1053  1  0.14509200  0.61031000  0.42785800  1
  C  1054  1  0.16169900  0.62873500  0.40717200  1
  C  1055  1  0.14950200  0.65149900  0.38480400  1
  C  1060  1  0.20509200  0.60826400  0.43052800  1
  C  1063  1  0.14436300  0.56705700  0.95047700  1
  C  1064  1  0.15574100  0.58834200  0.95337100  1
  C  1069  1  0.19884500  0.61032700  0.95365500  1
  C  1070  1  0.18207300  0.62882600  0.95565100  1
  C  1071  1  0.19409100  0.65169900  0.95514000  1
  C  1076  1  0.13885100  0.60810600  0.95285500  1
  C  1079  1  0.14415500  0.46123100  0.58023400  1
  C  1080  1  0.15561200  0.43707500  0.60149600  1
  C  1085  1  0.19878200  0.41489300  0.62341800  1
  C  1086  1  0.18207300  0.39432700  0.64189300  1
  C  1087  1  0.19416200  0.37196000  0.66472000  1
  C  1092  1  0.13877600  0.41774800  0.62123800  1
  C  1095  1  0.14435400  0.93745100  0.47422600  1
  C  1096  1  0.15573700  0.94034600  0.45004500  1
  C  1101  1  0.19884700  0.94065000  0.42777400  1
  C  1102  1  0.18207800  0.94263700  0.40728100  1
  C  1103  1  0.19410200  0.94213100  0.38491800  1
  C  1108  1  0.13885100  0.93982100  0.43080200  1
  C  1111  1  0.64427300  0.40998000  0.05278800  1
  C  1112  1  0.65571500  0.38871200  0.04989400  1
  C  1117  1  0.69885900  0.36671000  0.04972700  1
  C  1118  1  0.68212900  0.34827900  0.04757600  1
  C  1119  1  0.69417900  0.32543900  0.04804300  1
  C  1124  1  0.63885300  0.36900700  0.05025800  1
  C  1127  1  0.64442700  0.03983400  0.52898100  1
  C  1128  1  0.65584200  0.03696500  0.55314000  1
  C  1133  1  0.69895600  0.03688500  0.57530700  1
  C  1134  1  0.68219600  0.03466500  0.59590400  1
  C  1135  1  0.69419600  0.03511200  0.61830400  1
  C  1140  1  0.63894800  0.03728400  0.57248600  1
  C  1143  1  0.90494000  0.58678800  0.01626200  1
  C  1144  1  0.91269000  0.61321100  0.00938500  1
  C  1149  1  0.93468100  0.65217700  0.97759600  1
  C  1150  1  0.92932600  0.66370400  0.99266500  1
  C  1152  1  0.90743100  0.62460100  0.02447000  1
  C  1155  1  0.90500000  0.00319300  0.38875800  1
  C  1156  1  0.91273500  0.99631300  0.36921100  1
  C  1161  1  0.93468600  0.96452700  0.36201400  1
  C  1162  1  0.92933500  0.97960000  0.33542000  1
  C  1163  1  0.93737800  0.97250700  0.31614900  1
  C  1168  1  0.90747600  0.01140100  0.34273700  1
  C  1172  1  0.93472400  0.34880800  0.66523000  1
  C  1173  1  0.92931400  0.32222600  0.67673900  1
  C  1174  1  0.93737600  0.30291100  0.70308200  1
  C  1178  1  0.40495600  0.39039400  0.98690600  1
  C  1179  1  0.41271500  0.36397600  0.99377500  1
  C  1184  1  0.43471600  0.32501300  0.02556000  1
  C  1185  1  0.42937800  0.31349300  0.01048200  1
  C  1186  1  0.43748600  0.28714200  0.01757000  1
  C  1191  1  0.40747800  0.35259400  0.97867800  1
  C  1194  1  0.40495400  0.97393800  0.61438900  1
  C  1195  1  0.41270400  0.98080000  0.63394600  1
  C  1200  1  0.43467800  0.01258500  0.64113800  1
  C  1202  1  0.40748600  0.96568400  0.66042500  1
  C  1205  1  0.40495400  0.60145900  0.40339600  1
  C  1206  1  0.41273000  0.62101600  0.37698300  1
  C  1210  1  0.40749300  0.64749300  0.36560800  1
  C  1212  1  0.93879800  0.39129000  0.98612600  1
  C  1213  1  0.93082600  0.36485300  0.99321400  1
  C  1218  1  0.90908600  0.32597200  0.02542200  1
  C  1219  1  0.91387500  0.31436800  0.01034100  1
  C  1220  1  0.90522400  0.28810700  0.01752200  1
  C  1225  1  0.93562000  0.35334500  0.97816100  1
  C  1228  1  0.93841000  0.97349300  0.61377500  1
  C  1229  1  0.93044600  0.98025100  0.63336600  1
  C  1234  1  0.90894000  0.01223400  0.64052200  1
  C  1236  1  0.93508800  0.96485300  0.65991200  1
  C  1239  1  0.93868700  0.60071000  0.40479600  1
  C  1240  1  0.93069400  0.62016000  0.37840200  1
  C  1244  1  0.93523200  0.64673500  0.36709300  1
  C  1246  1  0.43866300  0.58531900  0.01699800  1
  C  1247  1  0.43065800  0.61171200  0.01003800  1
  C  1252  1  0.40921100  0.65072500  0.97779800  1
  C  1253  1  0.41380000  0.66219300  0.99302900  1
  C  1255  1  0.43517800  0.62304100  0.02528800  1
  C  1258  1  0.43870400  0.00397600  0.38954000  1
  C  1259  1  0.43070100  0.99702000  0.37010200  1
  C  1264  1  0.40927100  0.96477700  0.36332300  1
  C  1265  1  0.41384600  0.98002100  0.33662200  1
  C  1266  1  0.40522800  0.97285500  0.31752000  1
  C  1271  1  0.43520400  0.01228300  0.34352200  1
  C  1275  1  0.40919600  0.35025200  0.66371200  1
  C  1276  1  0.41379600  0.32355700  0.67515100  1
  C  1277  1  0.40526300  0.30444100  0.70143600  1
  C  1281  1  0.85693200  0.42044000  0.10339900  1
  C  1282  1  0.83211100  0.42064800  0.11868200  1
  C  1287  1  0.80605400  0.44559500  0.13296000  1
  C  1288  1  0.78534800  0.42580500  0.14512400  1
  C  1289  1  0.75913700  0.42707500  0.15836000  1
  C  1294  1  0.81072500  0.40146500  0.12961900  1
  C  1297  1  0.85703100  0.09048900  0.46789500  1
  C  1298  1  0.83215600  0.10568700  0.45242300  1
  C  1303  1  0.80600900  0.11977600  0.41327500  1
  C  1304  1  0.78528300  0.13193900  0.42088200  1
  C  1305  1  0.75901200  0.14505400  0.40640100  1
  C  1310  1  0.81076000  0.11663000  0.46065300  1
  C  1313  1  0.35713400  0.55684700  0.89948100  1
  C  1314  1  0.33221300  0.55658400  0.88431800  1
  C  1319  1  0.30601700  0.53155200  0.87022700  1
  C  1320  1  0.28524800  0.55129800  0.85815200  1
  C  1321  1  0.25892400  0.54993500  0.84509600  1
  C  1326  1  0.31075300  0.57571300  0.87350500  1
  C  1329  1  0.35708000  0.88661900  0.53540900  1
  C  1330  1  0.33220900  0.87137700  0.55084600  1
  C  1335  1  0.30609300  0.85709600  0.59004400  1
  C  1336  1  0.28534900  0.84502200  0.58234800  1
  C  1337  1  0.25908600  0.83184400  0.59679400  1
  C  1342  1  0.31077500  0.86055300  0.54252000  1
  C  1345  1  0.35695700  0.52224600  0.56987900  1
  C  1346  1  0.33209000  0.53772600  0.56960600  1
  C  1351  1  0.30594600  0.57687400  0.54454700  1
  C  1352  1  0.28522200  0.56927200  0.56431700  1
  C  1353  1  0.25895000  0.58374900  0.56295900  1
  C  1358  1  0.31068000  0.52949100  0.58877200  1
  C  1361  1  0.98715500  0.52099500  0.89984700  1
  C  1362  1  0.01177100  0.53678400  0.88448000  1
  C  1367  1  0.03749200  0.57611800  0.87048500  1
  C  1368  1  0.05816200  0.56888600  0.85795800  1
  C  1369  1  0.08419700  0.58366100  0.84462900  1
  C  1374  1  0.03313600  0.52892600  0.87317900  1
  C  1377  1  0.98719000  0.55805600  0.53401300  1
  C  1378  1  0.01184200  0.55751400  0.54982300  1
  C  1383  1  0.03753600  0.53201300  0.58913500  1
  C  1384  1  0.05830000  0.55169200  0.58194700  1
  C  1385  1  0.08438200  0.55008200  0.59674000  1
  C  1390  1  0.03330000  0.57659500  0.54200200  1
  C  1393  1  0.98709900  0.88663500  0.57094000  1
  C  1394  1  0.01174900  0.87130900  0.57050600  1
  C  1399  1  0.03746900  0.85730800  0.54517100  1
  C  1400  1  0.05821200  0.84488000  0.56488300  1
  C  1401  1  0.08428900  0.83161400  0.56341200  1
  C  1406  1  0.03320700  0.86014100  0.58960000  1
  C  1409  1  0.48704200  0.45598000  0.10367000  1
  C  1410  1  0.51174600  0.44024000  0.11891200  1
  C  1415  1  0.53755800  0.40098200  0.13272500  1
  C  1416  1  0.55831900  0.40824800  0.14515400  1
  C  1417  1  0.58445700  0.39354000  0.15830500  1
  C  1422  1  0.53322400  0.44815700  0.13007100  1
  C  1425  1  0.48723200  0.09052900  0.43205700  1
  C  1426  1  0.51188500  0.10581400  0.43257000  1
  C  1431  1  0.53763800  0.11960800  0.45805700  1
  C  1432  1  0.55835600  0.13213600  0.43834200  1
  C  1433  1  0.58444200  0.14534200  0.43990400  1
  C  1438  1  0.53331000  0.11709100  0.41346200  1
  N  106  1  0.65927000  0.38576300  0.55510300  1
  N  113  1  0.69092300  0.34982800  0.59285900  1
  N  115  1  0.61944300  0.36244100  0.56929600  1
  N  116  1  0.73110800  0.36450300  0.56624600  1
  N  122  1  0.68483200  0.54212800  0.39882200  1
  N  129  1  0.65296900  0.57971800  0.36291700  1
  N  131  1  0.72468600  0.55639100  0.37550400  1
  N  132  1  0.61278600  0.55312500  0.37797700  1
  N  138  1  0.91589700  0.31402000  0.66217300  1
  N  140  1  0.89491400  0.32062900  0.62429600  1
  N  141  1  0.42620900  0.61287100  0.36250000  1
  N  148  1  0.44762100  0.61530700  0.32872700  1
  N  149  1  0.91768900  0.61179000  0.36390400  1
  N  156  1  0.89618100  0.61406700  0.33014900  1
  N  162  1  0.42659100  0.31505900  0.66054900  1
  N  164  1  0.44778100  0.32139300  0.62277300  1
  N  170  1  0.82824800  0.41626800  0.45501400  1
  N  171  1  0.80370400  0.38175100  0.48258400  1
  N  177  1  0.51557600  0.44113500  0.43033800  1
  N  178  1  0.53979500  0.46903200  0.39580100  1
  N  196  1  0.90311900  0.55439100  0.20620000  1
  N  203  1  0.89273900  0.59563900  0.21064100  1
  N  205  1  0.89296100  0.57450600  0.25283400  1
  N  208  1  0.90242600  0.21857100  0.56702000  1
  N  215  1  0.89034500  0.17276900  0.60730300  1
  N  217  1  0.89154800  0.23780100  0.59121200  1
  N  220  1  0.44069600  0.55403400  0.23120800  1
  N  227  1  0.44996600  0.59603800  0.18574200  1
  N  229  1  0.45281100  0.57706500  0.25150500  1
  N  235  1  0.44067700  0.19355200  0.56702600  1
  N  242  1  0.44958100  0.19690500  0.60914700  1
  N  244  1  0.44857100  0.23917600  0.58866200  1
  N  251  1  0.78852300  0.43145900  0.41822900  1
  N  253  1  0.80895800  0.47207500  0.39720700  1
  N  260  1  0.55527300  0.40442400  0.44477600  1
  N  262  1  0.53532800  0.38302300  0.48554400  1
  N  307  1  0.89132200  0.57797400  0.16284100  1
  N  311  1  0.88994300  0.15236900  0.58551000  1
  N  315  1  0.44898800  0.57555400  0.16398100  1
  N  316  1  0.45291500  0.15024700  0.59003000  1
  N  335  1  0.91596100  0.64915700  0.01548100  1
  N  338  1  0.42662800  0.64762300  0.01612400  1
  N  860  1  0.90331400  0.19289300  0.23139900  1
  N  867  1  0.89108200  0.19814600  0.18571400  1
  N  869  1  0.89175900  0.14956900  0.25084700  1
  N  870  1  0.89078600  0.24033000  0.16511500  1
  N  876  1  0.40289200  0.42281600  0.79687800  1
  N  883  1  0.39336600  0.38143200  0.79247000  1
  N  885  1  0.39080300  0.39920600  0.84018500  1
  N  886  1  0.39404600  0.40250200  0.75029900  1
  N  892  1  0.40297200  0.78384900  0.77202900  1
  N  899  1  0.39338500  0.77951900  0.81778000  1
  N  901  1  0.39106300  0.82720000  0.75226700  1
  N  902  1  0.39398300  0.73734500  0.83892800  1
  N  908  1  0.40301500  0.75903900  0.43585900  1
  N  915  1  0.39367700  0.80480500  0.39436300  1
  N  917  1  0.39094400  0.73929100  0.41228800  1
  N  918  1  0.39433100  0.82597100  0.41537700  1
  N  924  1  0.94073500  0.75894800  0.79665600  1
  N  931  1  0.95000400  0.80442100  0.79318200  1
  N  933  1  0.95284900  0.73866100  0.83998200  1
  N  934  1  0.94903100  0.82616900  0.75093400  1
  N  940  1  0.94169500  0.42356300  0.77131300  1
  N  947  1  0.95353300  0.38288800  0.81694600  1
  N  949  1  0.95264900  0.39972900  0.75173800  1
  N  950  1  0.95388000  0.40420600  0.83781600  1
  N  956  1  0.94073700  0.78366400  0.43609200  1
  N  963  1  0.95015600  0.78010900  0.39416300  1
  N  965  1  0.95291800  0.82696900  0.41305100  1
  N  966  1  0.94912700  0.73787400  0.41467800  1
  N  972  1  0.44062900  0.21814600  0.20651500  1
  N  979  1  0.44972800  0.17266400  0.20994600  1
  N  981  1  0.45296400  0.23842600  0.16323300  1
  N  982  1  0.44863800  0.15090600  0.25220500  1
  N  988  1  0.65921600  0.54212600  0.05083900  1
  N  995  1  0.69088200  0.57990900  0.04894100  1
  N  997  1  0.61941500  0.55630900  0.06001000  1
  N  998  1  0.73107200  0.55331200  0.06082900  1
  N  1004  1  0.65930900  0.03800000  0.39872400  1
  N  1011  1  0.69085400  0.03590500  0.36288000  1
  N  1013  1  0.61947600  0.04723400  0.37537600  1
  N  1014  1  0.73120800  0.04763100  0.37757300  1
  N  1020  1  0.15907000  0.43511500  0.95190400  1
  N  1027  1  0.19078600  0.39714500  0.95426500  1
  N  1029  1  0.11935400  0.42092900  0.94257000  1
  N  1030  1  0.23107900  0.42362200  0.94258600  1
  N  1036  1  0.15921900  0.93935300  0.60437600  1
  N  1043  1  0.19089400  0.94124600  0.64026000  1
  N  1045  1  0.11942300  0.93017400  0.62773600  1
  N  1046  1  0.23107500  0.92936800  0.62553700  1
  N  1052  1  0.15925800  0.59143100  0.44813300  1
  N  1059  1  0.19082300  0.62722600  0.41017200  1
  N  1061  1  0.11944900  0.61479900  0.43401400  1
  N  1062  1  0.23117000  0.61251000  0.43659000  1
  N  1068  1  0.18482200  0.59130100  0.95241300  1
  N  1075  1  0.15296900  0.62721800  0.95408700  1
  N  1077  1  0.22467800  0.61461500  0.94334900  1
  N  1078  1  0.11278000  0.61215300  0.94256600  1
  N  1084  1  0.18469600  0.43515100  0.60443300  1
  N  1091  1  0.15295600  0.39741200  0.64030600  1
  N  1093  1  0.22459200  0.42093800  0.62772700  1
  N  1094  1  0.11261200  0.42383600  0.62527700  1
  N  1100  1  0.18481900  0.93940200  0.44804500  1
  N  1107  1  0.15297400  0.94106000  0.41045600  1
  N  1109  1  0.22468700  0.93035800  0.43378700  1
  N  1110  1  0.11278700  0.92952000  0.43704800  1
  N  1116  1  0.68479300  0.38571700  0.05097800  1
  N  1123  1  0.65301200  0.34992200  0.04900600  1
  N  1125  1  0.72464700  0.36235100  0.06013000  1
  N  1126  1  0.61267800  0.36499400  0.06036000  1
  N  1132  1  0.68491600  0.03811100  0.55504900  1
  N  1139  1  0.65307900  0.03603900  0.59283100  1
  N  1141  1  0.72473400  0.04732200  0.56926700  1
  N  1142  1  0.61275600  0.04735400  0.56639600  1
  N  1148  1  0.92614900  0.62769900  0.98674700  1
  N  1153  1  0.94746700  0.66149600  0.95536400  1
  N  1154  1  0.89495500  0.61127300  0.04680900  1
  N  1160  1  0.92617300  0.97366800  0.37735300  1
  N  1167  1  0.91598800  0.00241800  0.32716200  1
  N  1169  1  0.94744800  0.94228900  0.37491600  1
  N  1170  1  0.89503600  0.03374900  0.33372300  1
  N  1171  1  0.92619000  0.36419000  0.64076500  1
  N  1177  1  0.94758800  0.36165000  0.67456900  1
  N  1183  1  0.42617900  0.34948800  0.01641200  1
  N  1190  1  0.41602200  0.32804200  0.98766200  1
  N  1192  1  0.44756300  0.31570900  0.04776600  1
  N  1193  1  0.39502200  0.36593600  0.95632700  1
  N  1199  1  0.42614600  0.00344500  0.62580300  1
  N  1201  1  0.41602800  0.97465900  0.67600000  1
  N  1203  1  0.44753100  0.03479000  0.62824400  1
  N  1204  1  0.39510800  0.94330100  0.66943600  1
  N  1209  1  0.41605400  0.66306800  0.34106200  1
  N  1211  1  0.39503200  0.65649900  0.37895200  1
  N  1217  1  0.91760100  0.35049500  0.01601100  1
  N  1224  1  0.92696600  0.32879100  0.98736000  1
  N  1226  1  0.89595300  0.31681500  0.04751200  1
  N  1227  1  0.94840200  0.36634900  0.95591300  1
  N  1233  1  0.91738400  0.00307300  0.62517900  1
  N  1235  1  0.92659500  0.97384200  0.67549300  1
  N  1237  1  0.89592900  0.03440200  0.62778100  1
  N  1238  1  0.94780700  0.94259600  0.66888100  1
  N  1243  1  0.92667900  0.66216800  0.34251400  1
  N  1245  1  0.94788200  0.65584400  0.38028100  1
  N  1251  1  0.41766900  0.62620000  0.98715900  1
  N  1256  1  0.39618300  0.65993400  0.95565700  1
  N  1257  1  0.44785400  0.60987500  0.04757500  1
  N  1263  1  0.41772500  0.97413500  0.37848900  1
  N  1270  1  0.42665600  0.00312100  0.32810000  1
  N  1272  1  0.39623700  0.94263900  0.37624800  1
  N  1273  1  0.44785400  0.03458100  0.33439900  1
  N  1274  1  0.41762400  0.36543600  0.63918100  1
  N  1280  1  0.39625200  0.36318200  0.67296500  1
  N  1286  1  0.82809800  0.44198200  0.12035200  1
  N  1293  1  0.78850700  0.40510400  0.14216900  1
  N  1295  1  0.80357800  0.46954200  0.12731900  1
  N  1296  1  0.80894100  0.38399800  0.12266400  1
  N  1302  1  0.82810000  0.10725200  0.42946900  1
  N  1309  1  0.78848200  0.12908000  0.44449700  1
  N  1311  1  0.80344400  0.11400400  0.39506700  1
  N  1312  1  0.80902100  0.10972900  0.48506400  1
  N  1318  1  0.32815700  0.53522100  0.88271000  1
  N  1325  1  0.28843900  0.57200700  0.86108800  1
  N  1327  1  0.30342900  0.50756700  0.87602300  1
  N  1328  1  0.30893800  0.59307900  0.88059300  1
  N  1334  1  0.32818500  0.86966300  0.57386900  1
  N  1341  1  0.28851200  0.84804100  0.55866800  1
  N  1343  1  0.30360400  0.86273600  0.60835300  1
  N  1344  1  0.30895300  0.86765600  0.51806100  1
  N  1350  1  0.32803800  0.56067900  0.54821900  1
  N  1357  1  0.28841000  0.54565200  0.58506700  1
  N  1359  1  0.30337000  0.59506000  0.52056300  1
  N  1360  1  0.30889000  0.50507100  0.60624200  1
  N  1366  1  0.01562900  0.55967000  0.88310500  1
  N  1373  1  0.05516800  0.54534300  0.86060900  1
  N  1375  1  0.03982800  0.59423700  0.87640300  1
  N  1376  1  0.03514800  0.50460100  0.87982800  1
  N  1382  1  0.01565200  0.53594900  0.57267500  1
  N  1389  1  0.05536400  0.57263000  0.55842500  1
  N  1391  1  0.03990800  0.50793600  0.60715000  1
  N  1392  1  0.03538100  0.59425800  0.51767600  1
  N  1398  1  0.01557300  0.86988200  0.54901900  1
  N  1405  1  0.05526500  0.84761000  0.58573200  1
  N  1407  1  0.03979600  0.86323800  0.52112900  1
  N  1408  1  0.03532500  0.86698500  0.60712600  1
  N  1414  1  0.51560800  0.41737400  0.12023800  1
  N  1421  1  0.55533800  0.43178900  0.14250800  1
  N  1423  1  0.53997600  0.38297800  0.12665300  1
  N  1424  1  0.53532400  0.47252500  0.12324300  1
  N  1430  1  0.51573800  0.10708600  0.45413800  1
  N  1437  1  0.55537900  0.12956100  0.41740300  1
  N  1439  1  0.54004500  0.11352300  0.48213600  1
  N  1440  1  0.53538500  0.11041500  0.39580900  1
  O  8  1  0.91442200  0.26575900  0.61478900  1
  O  15  1  0.74379900  0.36614400  0.52059900  1
  O  33  1  0.43080500  0.60237900  0.27712800  1
  O  40  1  0.59990900  0.50750800  0.37973100  1
  O  58  1  0.43157300  0.26581400  0.61138200  1
  O  65  1  0.59604700  0.37850200  0.52380200  1
  O  83  1  0.91225700  0.59871600  0.27803200  1
  O  90  1  0.74780000  0.51092300  0.39151700  1
  O  271  1  0.91431900  0.60150700  0.11146800  1
  O  281  1  0.43092600  0.09937900  0.61530000  1
  O  291  1  0.43134000  0.59815400  0.11458600  1
  O  301  1  0.91294700  0.10130000  0.61221000  1
  O  348  1  0.74363500  0.50766300  0.10486800  1
  O  363  1  0.91436300  0.09824200  0.27881500  1
  O  370  1  0.74363800  0.09169200  0.37923300  1
  O  391  1  0.41410500  0.37568100  0.89153500  1
  O  398  1  0.24346300  0.46933800  0.89849000  1
  O  419  1  0.41427800  0.87857300  0.72443100  1
  O  426  1  0.24358000  0.88529600  0.62396900  1
  O  447  1  0.41413700  0.71150200  0.38874600  1
  O  454  1  0.24346800  0.61089400  0.48232700  1
  O  475  1  0.93086300  0.71306200  0.89091800  1
  O  482  1  0.09990100  0.61036200  0.89872400  1
  O  503  1  0.93073900  0.37433600  0.72604200  1
  O  510  1  0.09978000  0.46954600  0.62345000  1
  O  531  1  0.93088700  0.87790900  0.38772700  1
  O  538  1  0.09991400  0.88565500  0.48266800  1
  O  559  1  0.43093900  0.26403800  0.11235200  1
  O  566  1  0.60003600  0.36676700  0.10429000  1
  O  589  1  0.60003400  0.09121300  0.52069900  1
  O  604  1  0.92996600  0.37879500  0.88958900  1
  O  611  1  0.09593100  0.46637700  0.91309800  1
  O  632  1  0.93133300  0.87554900  0.72412500  1
  O  639  1  0.09608900  0.90071400  0.61169500  1
  O  660  1  0.93114500  0.71097100  0.39213700  1
  O  667  1  0.09605700  0.59879200  0.47951200  1
  O  690  1  0.59607300  0.51081300  0.08948900  1
  O  705  1  0.43139400  0.10152400  0.27896300  1
  O  712  1  0.59602800  0.07670600  0.39139800  1
  O  733  1  0.91265400  0.26519500  0.11480200  1
  O  740  1  0.74784500  0.37836500  0.08956800  1
  O  763  1  0.74788800  0.07683200  0.52382600  1
  O  778  1  0.41207600  0.71223300  0.88817000  1
  O  785  1  0.24777200  0.59865900  0.91383900  1
  O  806  1  0.41216600  0.37834400  0.72516900  1
  O  813  1  0.24779200  0.46639200  0.61174800  1
  O  834  1  0.41194400  0.87515800  0.39123700  1
  O  841  1  0.24781500  0.90088100  0.47925500  1
