# generated using pymatgen
data_H44C57N4
_symmetry_space_group_name_H-M   'P 1'
_cell_length_a   34.54770000
_cell_length_b   70.35625000
_cell_length_c   70.35620000
_cell_angle_alpha   119.99992947
_cell_angle_beta   89.98270000
_cell_angle_gamma   89.99999998
_symmetry_Int_Tables_number   1
_chemical_formula_structural   H44C57N4
_chemical_formula_sum   'H528 C684 N48'
_cell_volume   148100.01818520
_cell_formula_units_Z   12
loop_
 _symmetry_equiv_pos_site_id
 _symmetry_equiv_pos_as_xyz
  1  'x, y, z'
loop_
 _atom_site_type_symbol
 _atom_site_label
 _atom_site_symmetry_multiplicity
 _atom_site_fract_x
 _atom_site_fract_y
 _atom_site_fract_z
 _atom_site_occupancy
  H  26  1  0.83905600  0.57253600  0.49630700  1
  H  27  1  0.78917200  0.58458600  0.48156600  1
  H  28  1  0.84818700  0.51339300  0.43590100  1
  H  29  1  0.79816600  0.52528400  0.42113600  1
  H  30  1  0.72370700  0.52301200  0.42303600  1
  H  31  1  0.67272800  0.51004500  0.43622900  1
  H  32  1  0.66201500  0.57282900  0.49228500  1
  H  33  1  0.71344200  0.58587000  0.47932100  1
  H  34  1  0.69441400  0.59113300  0.44488300  1
  H  35  1  0.69318300  0.62844300  0.45383800  1
  H  36  1  0.81483600  0.63127600  0.45926500  1
  H  37  1  0.81628500  0.59388400  0.45023000  1
  H  38  1  0.81635500  0.55728700  0.41194400  1
  H  39  1  0.69448000  0.55277400  0.41130600  1
  H  40  1  0.69419600  0.54063500  0.37316100  1
  H  45  1  0.81586300  0.54489500  0.37368100  1
  H  71  1  0.83885200  0.92752200  0.43009700  1
  H  72  1  0.78895900  0.90074000  0.41809300  1
  H  73  1  0.84800200  0.92632300  0.48927000  1
  H  74  1  0.79796900  0.89967400  0.47742100  1
  H  75  1  0.72350600  0.90386500  0.47973200  1
  H  76  1  0.67256000  0.93004400  0.49271100  1
  H  77  1  0.66185600  0.92328700  0.42991700  1
  H  78  1  0.71324700  0.89726300  0.41686700  1
  H  79  1  0.69412400  0.85757900  0.41162400  1
  H  80  1  0.69284500  0.82922000  0.37431600  1
  H  81  1  0.81450300  0.83173500  0.37141900  1
  H  82  1  0.81599600  0.86009300  0.40880700  1
  H  83  1  0.81610100  0.85844700  0.44541600  1
  H  84  1  0.69423400  0.86236100  0.44997900  1
  H  85  1  0.69393000  0.83639400  0.46216700  1
  H  90  1  0.81557900  0.83261700  0.45785900  1
  H  116  1  0.83920300  0.50647300  0.07523000  1
  H  117  1  0.78925000  0.52122600  0.10199200  1
  H  118  1  0.84837600  0.56687000  0.07648000  1
  H  119  1  0.79828600  0.58164000  0.10310300  1
  H  120  1  0.72384200  0.57963100  0.09878600  1
  H  121  1  0.67297100  0.56636900  0.07257800  1
  H  122  1  0.66218300  0.51042600  0.07949300  1
  H  123  1  0.71350600  0.52346300  0.10554500  1
  H  124  1  0.69441100  0.55796800  0.14521500  1
  H  125  1  0.69311100  0.54903000  0.17358000  1
  H  126  1  0.81476000  0.54355300  0.17100100  1
  H  127  1  0.81627000  0.55257500  0.14263800  1
  H  128  1  0.81626100  0.59088000  0.14434800  1
  H  129  1  0.69442200  0.59146400  0.14029700  1
  H  130  1  0.69401400  0.62962100  0.16624800  1
  H  135  1  0.81565400  0.62915400  0.17016600  1
  H  161  1  0.33893400  0.43177300  0.50479200  1
  H  162  1  0.28900300  0.41978400  0.51957200  1
  H  163  1  0.34833500  0.49086900  0.56521800  1
  H  164  1  0.29826500  0.47903700  0.58001800  1
  H  165  1  0.22379400  0.48139200  0.57798400  1
  H  166  1  0.17289900  0.49435200  0.56474300  1
  H  167  1  0.16190900  0.43146600  0.50886800  1
  H  168  1  0.21325200  0.41843300  0.52187700  1
  H  169  1  0.19429600  0.41332800  0.55642200  1
  H  170  1  0.19298700  0.37601800  0.54747100  1
  H  171  1  0.31461100  0.37303100  0.54180000  1
  H  172  1  0.31614200  0.41042300  0.55083800  1
  H  173  1  0.31615400  0.44699200  0.58920600  1
  H  174  1  0.19431900  0.45179900  0.58986800  1
  H  175  1  0.19396000  0.46402300  0.62803300  1
  H  180  1  0.31558300  0.45946900  0.62748600  1
  H  206  1  0.33889000  0.07687400  0.57092800  1
  H  207  1  0.28901100  0.10367400  0.58297000  1
  H  208  1  0.34775000  0.07793500  0.51167200  1
  H  209  1  0.29773300  0.10460700  0.52356200  1
  H  210  1  0.22326400  0.10060500  0.52135300  1
  H  211  1  0.17232900  0.07443000  0.50839800  1
  H  212  1  0.16194600  0.08100200  0.57113200  1
  H  213  1  0.21332500  0.10702500  0.58415900  1
  H  214  1  0.19405000  0.14673000  0.58950600  1
  H  215  1  0.19282000  0.17508500  0.62681700  1
  H  216  1  0.31450900  0.17267500  0.62955200  1
  H  217  1  0.31595400  0.14431700  0.59215800  1
  H  218  1  0.31607500  0.14581700  0.55548000  1
  H  219  1  0.19417400  0.14212200  0.55123500  1
  H  220  1  0.19384700  0.16808700  0.53904300  1
  H  225  1  0.31554300  0.17164200  0.54303100  1
  H  251  1  0.33935900  0.49790200  0.92588900  1
  H  252  1  0.28946600  0.48317200  0.89910700  1
  H  253  1  0.34837300  0.43750200  0.92464400  1
  H  254  1  0.29834600  0.42275300  0.89800000  1
  H  255  1  0.22389500  0.42474600  0.90226300  1
  H  256  1  0.17298600  0.43800900  0.92846900  1
  H  257  1  0.16238000  0.49401800  0.92165600  1
  H  258  1  0.21373900  0.48098100  0.89560600  1
  H  259  1  0.19460300  0.44650400  0.85592300  1
  H  260  1  0.19334400  0.45544900  0.82756400  1
  H  261  1  0.31499900  0.46084900  0.83009300  1
  H  262  1  0.31646900  0.45182000  0.85845400  1
  H  263  1  0.31644900  0.41352500  0.85676000  1
  H  264  1  0.19459700  0.41297200  0.86076500  1
  H  265  1  0.19419700  0.37483100  0.83475700  1
  H  270  1  0.31585000  0.37526800  0.83088900  1
  H  277  1  0.92558400  0.55435100  0.52989900  1
  H  284  1  0.05573900  0.51904800  0.49690400  1
  H  285  1  0.11615500  0.50960100  0.50655200  1
  H  286  1  0.05699000  0.47768200  0.53514100  1
  H  287  1  0.91802200  0.49914900  0.46631100  1
  H  289  1  0.96369600  0.47047300  0.45218500  1
  H  290  1  0.98362700  0.46591900  0.47264200  1
  H  291  1  0.01068000  0.48011400  0.46214800  1
  H  292  1  0.98345100  0.54003200  0.53644100  1
  H  294  1  0.96660200  0.47475000  0.51296900  1
  H  295  1  0.96737400  0.49943500  0.53871700  1
  H  296  1  0.98918800  0.47544400  0.53577400  1
  H  299  1  0.86672000  0.54671000  0.50637000  1
  H  300  1  0.14737500  0.49991000  0.53376500  1
  H  307  1  0.92545900  0.97931600  0.44824800  1
  H  314  1  0.05557400  0.98167900  0.48355700  1
  H  315  1  0.11595800  0.00080600  0.49302000  1
  H  316  1  0.05670000  0.06128100  0.52496900  1
  H  317  1  0.91781600  0.97093600  0.50345200  1
  H  319  1  0.96344500  0.98549700  0.53213500  1
  H  320  1  0.98336400  0.01051300  0.53669300  1
  H  321  1  0.01044300  0.98583300  0.52250400  1
  H  322  1  0.98329800  0.00019700  0.46257900  1
  H  324  1  0.96631900  0.04199000  0.52786800  1
  H  325  1  0.96712900  0.04306700  0.50319100  1
  H  326  1  0.98888900  0.06411700  0.52719300  1
  H  329  1  0.86660800  0.96339200  0.45585500  1
  H  330  1  0.14707100  0.03776300  0.50271100  1
  H  337  1  0.92592800  0.47287200  0.02345400  1
  H  344  1  0.05603200  0.50587300  0.02112700  1
  H  345  1  0.11643800  0.49623500  0.00200800  1
  H  346  1  0.05726200  0.46771000  0.94152600  1
  H  347  1  0.91828600  0.53648000  0.03189500  1
  H  349  1  0.96391700  0.55062300  0.01734200  1
  H  350  1  0.98385500  0.53017900  0.99231700  1
  H  351  1  0.01091700  0.54065600  0.01699300  1
  H  352  1  0.98377700  0.46634400  0.00257000  1
  H  354  1  0.96684300  0.48986800  0.96081600  1
  H  355  1  0.96768500  0.46410200  0.95971400  1
  H  356  1  0.98945800  0.46708800  0.93868000  1
  H  359  1  0.86703200  0.49639700  0.03936800  1
  H  360  1  0.14762100  0.46900300  0.96506900  1
  H  367  1  0.42563700  0.44990400  0.47115600  1
  H  374  1  0.55580800  0.48519900  0.50408300  1
  H  375  1  0.61618500  0.49467500  0.49441600  1
  H  376  1  0.55691400  0.52663500  0.46591700  1
  H  377  1  0.41810300  0.50507500  0.53477000  1
  H  379  1  0.46376100  0.53374800  0.54888300  1
  H  380  1  0.48364700  0.53832300  0.52842600  1
  H  381  1  0.51074300  0.52411400  0.53888300  1
  H  382  1  0.48347300  0.46423300  0.46458900  1
  H  384  1  0.46654300  0.52951600  0.48812600  1
  H  385  1  0.46735000  0.50485200  0.46235900  1
  H  386  1  0.48910600  0.52886700  0.46533000  1
  H  389  1  0.36678200  0.45754700  0.49471900  1
  H  390  1  0.64734200  0.50440800  0.46721300  1
  H  397  1  0.42531900  0.02504000  0.55275900  1
  H  404  1  0.55551800  0.02269400  0.51748000  1
  H  405  1  0.61592800  0.00358100  0.50804100  1
  H  406  1  0.55675200  0.94309000  0.47611500  1
  H  407  1  0.41779300  0.03338200  0.49752900  1
  H  409  1  0.46350100  0.01882700  0.46886800  1
  H  410  1  0.48343800  0.99382100  0.46433100  1
  H  411  1  0.51047600  0.01850900  0.47852100  1
  H  412  1  0.48320100  0.00417700  0.53846000  1
  H  414  1  0.46638100  0.96235200  0.47317200  1
  H  415  1  0.46712500  0.96129300  0.49785900  1
  H  416  1  0.48895000  0.94023600  0.47387200  1
  H  419  1  0.36648700  0.04094000  0.54512600  1
  H  420  1  0.64711700  0.96664900  0.49835500  1
  H  427  1  0.42587400  0.53147800  0.97766200  1
  H  434  1  0.55599000  0.49847900  0.97998600  1
  H  435  1  0.61638800  0.50813300  0.99909200  1
  H  436  1  0.55717100  0.53671700  0.05958900  1
  H  437  1  0.41821500  0.46790200  0.96929900  1
  H  439  1  0.46385400  0.45376800  0.98385100  1
  H  440  1  0.48379700  0.47422500  0.00885700  1
  H  441  1  0.51085600  0.46371800  0.98416700  1
  H  442  1  0.48373400  0.53800900  0.99852100  1
  H  444  1  0.46677700  0.51454700  0.04033500  1
  H  445  1  0.46759100  0.54029400  0.04139600  1
  H  446  1  0.48936600  0.53735000  0.06244800  1
  H  449  1  0.36699100  0.50796600  0.96178100  1
  H  450  1  0.64754800  0.53538800  0.03601900  1
  H  457  1  0.82666200  0.52109900  0.30332800  1
  H  464  1  0.75213100  0.56575600  0.27879200  1
  H  465  1  0.74349600  0.57577500  0.25128500  1
  H  466  1  0.73845100  0.50896200  0.20249200  1
  H  467  1  0.70654500  0.52563800  0.31550500  1
  H  469  1  0.66076400  0.52934600  0.29290800  1
  H  470  1  0.67488100  0.51692500  0.26514800  1
  H  471  1  0.67930400  0.54574600  0.28257700  1
  H  472  1  0.81581800  0.52408700  0.27144300  1
  H  474  1  0.72388100  0.48726800  0.23618700  1
  H  475  1  0.77485500  0.48683900  0.23275100  1
  H  476  1  0.74378000  0.48015000  0.21037300  1
  H  479  1  0.79875500  0.51718400  0.33401200  1
  H  480  1  0.71581600  0.56137200  0.21210700  1
  H  487  1  0.82636900  0.78616900  0.48176600  1
  H  494  1  0.75216600  0.71686400  0.43698700  1
  H  495  1  0.74372000  0.67932400  0.42695900  1
  H  496  1  0.73841500  0.69733700  0.49376600  1
  H  497  1  0.70625200  0.79364900  0.47707200  1
  H  499  1  0.66055000  0.76727000  0.47327900  1
  H  500  1  0.67465500  0.75194600  0.48571300  1
  H  501  1  0.67921100  0.74056600  0.45689800  1
  H  502  1  0.81562100  0.75127200  0.47873800  1
  H  504  1  0.72355400  0.75270400  0.51544000  1
  H  505  1  0.77453900  0.74978200  0.51593200  1
  H  506  1  0.74350500  0.73404200  0.52258300  1
  H  509  1  0.79839400  0.82072900  0.48565300  1
  H  510  1  0.71611100  0.65450300  0.44133000  1
  H  517  1  0.82634300  0.69942900  0.21660600  1
  H  524  1  0.75179000  0.72395400  0.28583700  1
  H  525  1  0.74319500  0.75146300  0.32337000  1
  H  526  1  0.73821900  0.80026700  0.30536200  1
  H  527  1  0.70622000  0.68733000  0.20896600  1
  H  529  1  0.66044300  0.70990800  0.23531700  1
  H  530  1  0.67457700  0.73765800  0.25069600  1
  H  531  1  0.67898000  0.72018200  0.26203400  1
  H  532  1  0.81551500  0.73127500  0.25151900  1
  H  534  1  0.72361700  0.76658600  0.24997200  1
  H  535  1  0.77459300  0.76999500  0.25296900  1
  H  536  1  0.74353000  0.79238700  0.26866800  1
  H  539  1  0.79851200  0.66879300  0.18202100  1
  H  540  1  0.71560800  0.79065500  0.34816900  1
  H  547  1  0.32649300  0.48345000  0.69773000  1
  H  554  1  0.25225100  0.43866900  0.72230500  1
  H  555  1  0.24373800  0.42863900  0.74981300  1
  H  556  1  0.23868400  0.49544900  0.79862300  1
  H  557  1  0.20632800  0.47894100  0.68575600  1
  H  559  1  0.16068400  0.47514800  0.70837600  1
  H  560  1  0.17491100  0.48749100  0.73610700  1
  H  561  1  0.17934300  0.45868100  0.71859700  1
  H  562  1  0.31584400  0.48035900  0.72957700  1
  H  564  1  0.22395300  0.51715700  0.76495600  1
  H  565  1  0.27493800  0.51758500  0.76833600  1
  H  566  1  0.24392000  0.52426600  0.79074500  1
  H  569  1  0.29847700  0.48739000  0.66712000  1
  H  570  1  0.21618200  0.44300300  0.78899000  1
  H  577  1  0.32630500  0.21817300  0.51930500  1
  H  584  1  0.25194900  0.28744400  0.56406200  1
  H  585  1  0.24339000  0.32498500  0.57411500  1
  H  586  1  0.23830500  0.30702200  0.50731800  1
  H  587  1  0.20616300  0.21063400  0.52385500  1
  H  589  1  0.16045600  0.23700700  0.52763000  1
  H  590  1  0.17462400  0.25238100  0.51525800  1
  H  591  1  0.17906500  0.26371000  0.54406900  1
  H  592  1  0.31556000  0.25308600  0.52236100  1
  H  594  1  0.22363200  0.25164000  0.48558700  1
  H  595  1  0.27461100  0.25460400  0.48514100  1
  H  596  1  0.24357300  0.27033400  0.47848300  1
  H  599  1  0.29832300  0.18358000  0.51534500  1
  H  600  1  0.21580500  0.34981500  0.55978600  1
  H  607  1  0.32645500  0.30489100  0.78435600  1
  H  614  1  0.25186300  0.28039800  0.71517700  1
  H  615  1  0.24325100  0.25287900  0.67765500  1
  H  616  1  0.23813400  0.20410900  0.69570600  1
  H  617  1  0.20637500  0.31717300  0.79204000  1
  H  619  1  0.16053700  0.29461700  0.76575100  1
  H  620  1  0.17457800  0.26684400  0.75041200  1
  H  621  1  0.17905900  0.28426400  0.73901200  1
  H  622  1  0.31553400  0.27301900  0.74948700  1
  H  624  1  0.22352200  0.23783300  0.75109600  1
  H  625  1  0.27449500  0.23438700  0.74809100  1
  H  626  1  0.24340500  0.21201400  0.73241100  1
  H  629  1  0.29863900  0.33560700  0.81896500  1
  H  630  1  0.21552700  0.21367300  0.65290500  1
  H  656  1  0.57854700  0.41618900  0.66686800  1
  H  657  1  0.52866300  0.42823900  0.65212700  1
  H  658  1  0.58767800  0.35704600  0.60646200  1
  H  659  1  0.53765700  0.36893700  0.59169700  1
  H  660  1  0.46319800  0.36666500  0.59359700  1
  H  661  1  0.41221900  0.35369800  0.60679000  1
  H  662  1  0.40150600  0.41648200  0.66284600  1
  H  663  1  0.45293300  0.42952300  0.64988200  1
  H  664  1  0.43390500  0.43478600  0.61544400  1
  H  665  1  0.43267400  0.47209600  0.62439900  1
  H  666  1  0.55432700  0.47492900  0.62982600  1
  H  667  1  0.55577600  0.43753700  0.62079100  1
  H  668  1  0.55584600  0.40094000  0.58250500  1
  H  669  1  0.43397100  0.39642700  0.58186700  1
  H  670  1  0.43368700  0.38428800  0.54372200  1
  H  675  1  0.55535400  0.38854800  0.54424200  1
  H  701  1  0.57834300  0.77117500  0.60065800  1
  H  702  1  0.52845000  0.74439300  0.58865400  1
  H  703  1  0.58749300  0.76997600  0.65983100  1
  H  704  1  0.53746000  0.74332700  0.64798200  1
  H  705  1  0.46299700  0.74751800  0.65029300  1
  H  706  1  0.41205100  0.77369700  0.66327200  1
  H  707  1  0.40134700  0.76694000  0.60047800  1
  H  708  1  0.45273800  0.74091600  0.58742800  1
  H  709  1  0.43361500  0.70123200  0.58218500  1
  H  710  1  0.43233600  0.67287300  0.54487700  1
  H  711  1  0.55399400  0.67538800  0.54198000  1
  H  712  1  0.55548700  0.70374600  0.57936800  1
  H  713  1  0.55559200  0.70210000  0.61597700  1
  H  714  1  0.43372500  0.70601400  0.62054000  1
  H  715  1  0.43342100  0.68004700  0.63272800  1
  H  720  1  0.55507000  0.67627000  0.62842000  1
  H  746  1  0.57869400  0.35012600  0.24579100  1
  H  747  1  0.52874100  0.36487900  0.27255300  1
  H  748  1  0.58786700  0.41052300  0.24704100  1
  H  749  1  0.53777700  0.42529300  0.27366400  1
  H  750  1  0.46333300  0.42328400  0.26934700  1
  H  751  1  0.41246200  0.41002200  0.24313900  1
  H  752  1  0.40167400  0.35407900  0.25005400  1
  H  753  1  0.45299700  0.36711600  0.27610600  1
  H  754  1  0.43390200  0.40162100  0.31577600  1
  H  755  1  0.43260200  0.39268300  0.34414100  1
  H  756  1  0.55425100  0.38720600  0.34156200  1
  H  757  1  0.55576100  0.39622800  0.31319900  1
  H  758  1  0.55575200  0.43453300  0.31490900  1
  H  759  1  0.43391300  0.43511700  0.31085800  1
  H  760  1  0.43350500  0.47327400  0.33680900  1
  H  765  1  0.55514500  0.47280700  0.34072700  1
  H  791  1  0.07842500  0.27542600  0.67535300  1
  H  792  1  0.02849400  0.26343700  0.69013300  1
  H  793  1  0.08782600  0.33452200  0.73577900  1
  H  794  1  0.03775600  0.32269000  0.75057900  1
  H  795  1  0.96328460  0.32504500  0.74854500  1
  H  796  1  0.91238960  0.33800500  0.73530400  1
  H  797  1  0.90139960  0.27511900  0.67942900  1
  H  798  1  0.95274260  0.26208600  0.69243800  1
  H  799  1  0.93378660  0.25698100  0.72698300  1
  H  800  1  0.93247760  0.21967100  0.71803200  1
  H  801  1  0.05410200  0.21668400  0.71236100  1
  H  802  1  0.05563300  0.25407600  0.72139900  1
  H  803  1  0.05564500  0.29064500  0.75976700  1
  H  804  1  0.93380960  0.29545200  0.76042900  1
  H  805  1  0.93345060  0.30767600  0.79859400  1
  H  810  1  0.05507400  0.30312200  0.79804700  1
  H  836  1  0.07838100  0.92052690  0.74148890  1
  H  837  1  0.02850200  0.94732690  0.75353090  1
  H  838  1  0.08724100  0.92158790  0.68223290  1
  H  839  1  0.03722400  0.94825990  0.69412290  1
  H  840  1  0.96275460  0.94425790  0.69191390  1
  H  841  1  0.91181960  0.91808290  0.67895890  1
  H  842  1  0.90143660  0.92465490  0.74169290  1
  H  843  1  0.95281560  0.95067790  0.75471990  1
  H  844  1  0.93354060  0.99038295  0.76006695  1
  H  845  1  0.93231060  0.01873800  0.79737800  1
  H  846  1  0.05400000  0.01632800  0.80011300  1
  H  847  1  0.05544500  0.98796990  0.76271890  1
  H  848  1  0.05556600  0.98946990  0.72604090  1
  H  849  1  0.93366460  0.98577490  0.72179590  1
  H  850  1  0.93333760  0.01174000  0.70960400  1
  H  855  1  0.05503400  0.01529500  0.71359200  1
  H  881  1  0.07885000  0.34155500  0.09645000  1
  H  882  1  0.02895700  0.32682500  0.06966800  1
  H  883  1  0.08786400  0.28115500  0.09520500  1
  H  884  1  0.03783700  0.26640600  0.06856100  1
  H  885  1  0.96338560  0.26839900  0.07282400  1
  H  886  1  0.91247660  0.28166200  0.09903000  1
  H  887  1  0.90187060  0.33767100  0.09221700  1
  H  888  1  0.95322960  0.32463400  0.06616700  1
  H  889  1  0.93409360  0.29015700  0.02648400  1
  H  890  1  0.93283460  0.29910200  0.99812500  1
  H  891  1  0.05449000  0.30450200  0.00065400  1
  H  892  1  0.05596000  0.29547300  0.02901500  1
  H  893  1  0.05594000  0.25717800  0.02732100  1
  H  894  1  0.93408760  0.25662500  0.03132600  1
  H  895  1  0.93368760  0.21848400  0.00531800  1
  H  900  1  0.05534100  0.21892100  0.00145000  1
  H  907  1  0.66507500  0.39800400  0.70046000  1
  H  914  1  0.79523000  0.36270100  0.66746500  1
  H  915  1  0.85564600  0.35325400  0.67711300  1
  H  916  1  0.79648100  0.32133500  0.70570200  1
  H  917  1  0.65751300  0.34280200  0.63687200  1
  H  919  1  0.70318700  0.31412600  0.62274600  1
  H  920  1  0.72311800  0.30957200  0.64320300  1
  H  921  1  0.75017100  0.32376700  0.63270900  1
  H  922  1  0.72294200  0.38368500  0.70700200  1
  H  924  1  0.70609300  0.31840300  0.68353000  1
  H  925  1  0.70686500  0.34308800  0.70927800  1
  H  926  1  0.72867900  0.31909700  0.70633500  1
  H  929  1  0.60621100  0.39036300  0.67693100  1
  H  930  1  0.88686600  0.34356300  0.70432600  1
  H  937  1  0.66495000  0.82296900  0.61880900  1
  H  944  1  0.79506500  0.82533200  0.65411800  1
  H  945  1  0.85544900  0.84445900  0.66358100  1
  H  946  1  0.79619100  0.90493390  0.69552990  1
  H  947  1  0.65730700  0.81458900  0.67401300  1
  H  949  1  0.70293600  0.82915000  0.70269600  1
  H  950  1  0.72285500  0.85416600  0.70725400  1
  H  951  1  0.74993400  0.82948600  0.69306500  1
  H  952  1  0.72278900  0.84385000  0.63314000  1
  H  954  1  0.70581000  0.88564300  0.69842900  1
  H  955  1  0.70662000  0.88672000  0.67375200  1
  H  956  1  0.72838000  0.90776990  0.69775390  1
  H  959  1  0.60609900  0.80704500  0.62641600  1
  H  960  1  0.88656200  0.88141600  0.67327200  1
  H  967  1  0.66541900  0.31652500  0.19401500  1
  H  974  1  0.79552300  0.34952600  0.19168800  1
  H  975  1  0.85592900  0.33988800  0.17256900  1
  H  976  1  0.79675300  0.31136300  0.11208700  1
  H  977  1  0.65777700  0.38013300  0.20245600  1
  H  979  1  0.70340800  0.39427600  0.18790300  1
  H  980  1  0.72334600  0.37383200  0.16287800  1
  H  981  1  0.75040800  0.38430900  0.18755400  1
  H  982  1  0.72326800  0.30999700  0.17313100  1
  H  984  1  0.70633400  0.33352100  0.13137700  1
  H  985  1  0.70717600  0.30775500  0.13027500  1
  H  986  1  0.72894900  0.31074100  0.10924100  1
  H  989  1  0.60652300  0.34005000  0.20992900  1
  H  990  1  0.88711200  0.31265600  0.13563000  1
  H  997  1  0.16512800  0.29355700  0.64171700  1
  H  1004  1  0.29529900  0.32885200  0.67464400  1
  H  1005  1  0.35567600  0.33832800  0.66497700  1
  H  1006  1  0.29640500  0.37028800  0.63647800  1
  H  1007  1  0.15759400  0.34872800  0.70533100  1
  H  1009  1  0.20325200  0.37740100  0.71944400  1
  H  1010  1  0.22313800  0.38197600  0.69898700  1
  H  1011  1  0.25023400  0.36776700  0.70944400  1
  H  1012  1  0.22296400  0.30788600  0.63515000  1
  H  1014  1  0.20603400  0.37316900  0.65868700  1
  H  1015  1  0.20684100  0.34850500  0.63292000  1
  H  1016  1  0.22859700  0.37252000  0.63589100  1
  H  1019  1  0.10627300  0.30120000  0.66528000  1
  H  1020  1  0.38683300  0.34806100  0.63777400  1
  H  1027  1  0.16481000  0.86869300  0.72332000  1
  H  1034  1  0.29500900  0.86634700  0.68804100  1
  H  1035  1  0.35541900  0.84723400  0.67860200  1
  H  1036  1  0.29624300  0.78674300  0.64667600  1
  H  1037  1  0.15728400  0.87703500  0.66809000  1
  H  1039  1  0.20299200  0.86248000  0.63942900  1
  H  1040  1  0.22292900  0.83747400  0.63489200  1
  H  1041  1  0.24996700  0.86216200  0.64908200  1
  H  1042  1  0.22269200  0.84783000  0.70902100  1
  H  1044  1  0.20587200  0.80600500  0.64373300  1
  H  1045  1  0.20661600  0.80494600  0.66842000  1
  H  1046  1  0.22844100  0.78388900  0.64443300  1
  H  1049  1  0.10597800  0.88459300  0.71568700  1
  H  1050  1  0.38660800  0.81030200  0.66891600  1
  H  1057  1  0.16536500  0.37513100  0.14822300  1
  H  1064  1  0.29548100  0.34213200  0.15054700  1
  H  1065  1  0.35587900  0.35178600  0.16965300  1
  H  1066  1  0.29666200  0.38037000  0.23015000  1
  H  1067  1  0.15770600  0.31155500  0.13986000  1
  H  1069  1  0.20334500  0.29742100  0.15441200  1
  H  1070  1  0.22328800  0.31787800  0.17941800  1
  H  1071  1  0.25034700  0.30737100  0.15472800  1
  H  1072  1  0.22322500  0.38166200  0.16908200  1
  H  1074  1  0.20626800  0.35820000  0.21089600  1
  H  1075  1  0.20708200  0.38394700  0.21195700  1
  H  1076  1  0.22885700  0.38100300  0.23300900  1
  H  1079  1  0.10648200  0.35161900  0.13234200  1
  H  1080  1  0.38703900  0.37904100  0.20658000  1
  H  1087  1  0.56615300  0.36475200  0.47388900  1
  H  1094  1  0.49162200  0.40940900  0.44935290  1
  H  1095  1  0.48298700  0.41942800  0.42184593  1
  H  1096  1  0.47794200  0.35261500  0.37305290  1
  H  1097  1  0.44603600  0.36929100  0.48606600  1
  H  1099  1  0.40025500  0.37299900  0.46346890  1
  H  1100  1  0.41437200  0.36057800  0.43570890  1
  H  1101  1  0.41879500  0.38939900  0.45313790  1
  H  1102  1  0.55530900  0.36774000  0.44200390  1
  H  1104  1  0.46337200  0.33092100  0.40674790  1
  H  1105  1  0.51434600  0.33049200  0.40331190  1
  H  1106  1  0.48327100  0.32380300  0.38093390  1
  H  1109  1  0.53824600  0.36083700  0.50457300  1
  H  1110  1  0.45530700  0.40502500  0.38266800  1
  H  1117  1  0.56586000  0.62982200  0.65232690  1
  H  1124  1  0.49165700  0.56051700  0.60754790  1
  H  1125  1  0.48321100  0.52297700  0.59751990  1
  H  1126  1  0.47790600  0.54099000  0.66432700  1
  H  1127  1  0.44574300  0.63730200  0.64763290  1
  H  1129  1  0.40004100  0.61092300  0.64383990  1
  H  1130  1  0.41414600  0.59559900  0.65627390  1
  H  1131  1  0.41870200  0.58421900  0.62745890  1
  H  1132  1  0.55511200  0.59492500  0.64929890  1
  H  1134  1  0.46304500  0.59635700  0.68600090  1
  H  1135  1  0.51403000  0.59343500  0.68649290  1
  H  1136  1  0.48299600  0.57769500  0.69314400  1
  H  1139  1  0.53788500  0.66438200  0.65621400  1
  H  1140  1  0.45560200  0.49815600  0.61189100  1
  H  1147  1  0.56583400  0.54308200  0.38716700  1
  H  1154  1  0.49128100  0.56760700  0.45639800  1
  H  1155  1  0.48268600  0.59511600  0.49393100  1
  H  1156  1  0.47771000  0.64392000  0.47592300  1
  H  1157  1  0.44571100  0.53098300  0.37952700  1
  H  1159  1  0.39993400  0.55356100  0.40587800  1
  H  1160  1  0.41406800  0.58131100  0.42125700  1
  H  1161  1  0.41847100  0.56383500  0.43259500  1
  H  1162  1  0.55500600  0.57492800  0.42208000  1
  H  1164  1  0.46310800  0.61023900  0.42053300  1
  H  1165  1  0.51408400  0.61364800  0.42353000  1
  H  1166  1  0.48302100  0.63604000  0.43922900  1
  H  1169  1  0.53800300  0.51244600  0.35258200  1
  H  1170  1  0.45509900  0.63430800  0.51873000  1
  H  1177  1  0.06598400  0.32710300  0.86829100  1
  H  1184  1  0.99174162  0.28232200  0.89286600  1
  H  1185  1  0.98322860  0.27229200  0.92037400  1
  H  1186  1  0.97817460  0.33910200  0.96918400  1
  H  1187  1  0.94581860  0.32259400  0.85631700  1
  H  1189  1  0.90017460  0.31880100  0.87893700  1
  H  1190  1  0.91440160  0.33114400  0.90666800  1
  H  1191  1  0.91883360  0.30233400  0.88915800  1
  H  1192  1  0.05533500  0.32401200  0.90013800  1
  H  1194  1  0.96344360  0.36081000  0.93551700  1
  H  1195  1  0.01442900  0.36123800  0.93889700  1
  H  1196  1  0.98341060  0.36791900  0.96130600  1
  H  1199  1  0.03796800  0.33104300  0.83768100  1
  H  1200  1  0.95567260  0.28665600  0.95955100  1
  H  1207  1  0.06579600  0.06182600  0.68986600  1
  H  1214  1  0.99143962  0.13109700  0.73462300  1
  H  1215  1  0.98288060  0.16863800  0.74467600  1
  H  1216  1  0.97779560  0.15067500  0.67787900  1
  H  1217  1  0.94565360  0.05428700  0.69441600  1
  H  1219  1  0.89994700  0.08066000  0.69819100  1
  H  1220  1  0.91411460  0.09603400  0.68581900  1
  H  1221  1  0.91855560  0.10736300  0.71463000  1
  H  1222  1  0.05505100  0.09673900  0.69292200  1
  H  1224  1  0.96312260  0.09529300  0.65614800  1
  H  1225  1  0.01410200  0.09825700  0.65570200  1
  H  1226  1  0.98306360  0.11398700  0.64904400  1
  H  1229  1  0.03781400  0.02723300  0.68590600  1
  H  1230  1  0.95529560  0.19346800  0.73034700  1
  H  1237  1  0.06594600  0.14854400  0.95491700  1
  H  1244  1  0.99135362  0.12405100  0.88573800  1
  H  1245  1  0.98274160  0.09653200  0.84821600  1
  H  1246  1  0.97762460  0.04776200  0.86626700  1
  H  1247  1  0.94586560  0.16082600  0.96260100  1
  H  1249  1  0.90002760  0.13827000  0.93631200  1
  H  1250  1  0.91406860  0.11049700  0.92097300  1
  H  1251  1  0.91854960  0.12791700  0.90957300  1
  H  1252  1  0.05502500  0.11667200  0.92004800  1
  H  1254  1  0.96301260  0.08148600  0.92165700  1
  H  1255  1  0.01398600  0.07804000  0.91865200  1
  H  1256  1  0.98289560  0.05566700  0.90297200  1
  H  1259  1  0.03813000  0.17926000  0.98952600  1
  H  1260  1  0.95501760  0.05732600  0.82346600  1
  C  1  1  0.75509600  0.54035900  0.36961100  1
  C  2  1  0.72021400  0.54327300  0.38106800  1
  C  3  1  0.72059700  0.55032900  0.40360500  1
  C  4  1  0.75572700  0.55460700  0.41559800  1
  C  5  1  0.79037700  0.55290600  0.40393500  1
  C  6  1  0.79028600  0.54555800  0.38132000  1
  C  7  1  0.75593500  0.56419900  0.44045500  1
  C  8  1  0.75528000  0.58868500  0.44806600  1
  C  9  1  0.78985300  0.60099600  0.45167400  1
  C  10  1  0.78921300  0.62305300  0.45682000  1
  C  11  1  0.75393500  0.63339900  0.45754800  1
  C  12  1  0.71925200  0.62138400  0.45350000  1
  C  13  1  0.72012900  0.59939000  0.44846000  1
  C  14  1  0.72245000  0.55631700  0.44892200  1
  C  15  1  0.79000700  0.55700800  0.44916900  1
  C  16  1  0.80183000  0.56974700  0.47143900  1
  C  17  1  0.83087800  0.56255300  0.48034600  1
  C  18  1  0.84834100  0.54182400  0.46742900  1
  C  19  1  0.83641200  0.52865100  0.44550800  1
  C  20  1  0.80715200  0.53590100  0.43677400  1
  C  21  1  0.71091800  0.53391900  0.43756800  1
  C  22  1  0.68122900  0.52606900  0.44544800  1
  C  23  1  0.66284800  0.54023900  0.46556900  1
  C  24  1  0.67479100  0.56227900  0.47757600  1
  C  25  1  0.70480800  0.56995700  0.46967000  1
  C  46  1  0.75482900  0.83314100  0.46247100  1
  C  47  1  0.71995100  0.84165200  0.45951300  1
  C  48  1  0.72034600  0.85712000  0.45243900  1
  C  49  1  0.75548200  0.86481300  0.44813100  1
  C  50  1  0.79012200  0.85484600  0.44982700  1
  C  51  1  0.79001700  0.83961200  0.45721700  1
  C  52  1  0.75570600  0.88006200  0.43852100  1
  C  53  1  0.75499400  0.86317600  0.41403900  1
  C  54  1  0.78955300  0.85444800  0.40170500  1
  C  55  1  0.78888600  0.83753900  0.37964800  1
  C  56  1  0.75359300  0.82793600  0.36932500  1
  C  57  1  0.71892600  0.83591900  0.38136200  1
  C  58  1  0.71983300  0.85287800  0.40335400  1
  C  59  1  0.72225100  0.89642900  0.44642400  1
  C  60  1  0.78981200  0.89594200  0.44568600  1
  C  61  1  0.80162600  0.90546000  0.43292800  1
  C  62  1  0.83068200  0.92155600  0.44009500  1
  C  63  1  0.84815600  0.92938500  0.46081900  1
  C  64  1  0.83620700  0.92066700  0.47401900  1
  C  65  1  0.80695500  0.90468100  0.46679000  1
  C  66  1  0.71072800  0.90748900  0.46882600  1
  C  67  1  0.68105800  0.92323300  0.47668500  1
  C  68  1  0.66269500  0.92918300  0.46251600  1
  C  69  1  0.67463200  0.91913700  0.44047000  1
  C  70  1  0.70462300  0.90353700  0.43278600  1
  C  91  1  0.75490200  0.63320200  0.16958200  1
  C  92  1  0.72005600  0.62172400  0.16102000  1
  C  93  1  0.72051600  0.59918000  0.14556300  1
  C  94  1  0.75567600  0.58719100  0.13790500  1
  C  95  1  0.79026900  0.59887900  0.14792200  1
  C  96  1  0.79011800  0.62150600  0.16314400  1
  C  97  1  0.75596200  0.56233100  0.12268200  1
  C  98  1  0.75527700  0.55474700  0.13957700  1
  C  99  1  0.78982500  0.55114900  0.14830800  1
  C  100  1  0.78915000  0.54601200  0.16522400  1
  C  101  1  0.75385500  0.54529400  0.17483600  1
  C  102  1  0.71919600  0.54936100  0.16686600  1
  C  103  1  0.72011600  0.55439200  0.14990700  1
  C  104  1  0.72252600  0.55382200  0.10631300  1
  C  105  1  0.79009400  0.55362000  0.10681000  1
  C  106  1  0.80192700  0.53134800  0.09728100  1
  C  107  1  0.83102100  0.52243500  0.08120000  1
  C  108  1  0.84851300  0.53534300  0.07338700  1
  C  109  1  0.83656300  0.55726100  0.08211800  1
  C  110  1  0.80727000  0.56600200  0.09809100  1
  C  111  1  0.71104900  0.56511300  0.09519600  1
  C  112  1  0.68142600  0.55719000  0.07943400  1
  C  113  1  0.66306600  0.53707800  0.07351900  1
  C  114  1  0.67495600  0.52512500  0.08361800  1
  C  115  1  0.70490300  0.53307900  0.09923500  1
  C  136  1  0.25484100  0.46416300  0.63156700  1
  C  137  1  0.21998800  0.46129200  0.62011000  1
  C  138  1  0.22041900  0.45419700  0.59756400  1
  C  139  1  0.25557100  0.44980900  0.58555700  1
  C  140  1  0.29017500  0.45144700  0.59722000  1
  C  141  1  0.29004500  0.45886500  0.61985000  1
  C  142  1  0.25584000  0.44017700  0.56069600  1
  C  143  1  0.25515100  0.41569800  0.55312100  1
  C  144  1  0.28969400  0.40334400  0.54944800  1
  C  145  1  0.28900800  0.38129000  0.54430800  1
  C  146  1  0.25371800  0.37098600  0.54364700  1
  C  147  1  0.21906700  0.38305000  0.54777900  1
  C  148  1  0.21999100  0.40504000  0.55280600  1
  C  149  1  0.22240200  0.44804800  0.55219300  1
  C  150  1  0.28996700  0.44733800  0.55198400  1
  C  151  1  0.30172400  0.43460100  0.52969400  1
  C  152  1  0.33080300  0.44175900  0.52076500  1
  C  153  1  0.34835000  0.46246000  0.53367300  1
  C  154  1  0.33646500  0.47564000  0.55560500  1
  C  155  1  0.30720100  0.46841600  0.56436700  1
  C  156  1  0.21097700  0.47046500  0.56347500  1
  C  157  1  0.18132500  0.47830800  0.55556900  1
  C  158  1  0.16291600  0.46411400  0.53547500  1
  C  159  1  0.17474600  0.44204700  0.52354200  1
  C  160  1  0.20470500  0.43437200  0.53148000  1
  C  181  1  0.25475400  0.17124800  0.53861000  1
  C  182  1  0.21987500  0.16278800  0.54163600  1
  C  183  1  0.22028300  0.14732600  0.54871700  1
  C  184  1  0.25543200  0.13956100  0.55292600  1
  C  185  1  0.29007400  0.14947300  0.55114600  1
  C  186  1  0.28996400  0.16471400  0.54376600  1
  C  187  1  0.25563100  0.12430500  0.56252700  1
  C  188  1  0.25494000  0.14118000  0.58700900  1
  C  189  1  0.28951800  0.14993800  0.59929700  1
  C  190  1  0.28887800  0.16683700  0.62135900  1
  C  191  1  0.25358800  0.17641500  0.63172900  1
  C  192  1  0.21889900  0.16840400  0.61973600  1
  C  193  1  0.21977900  0.15144800  0.59774300  1
  C  194  1  0.22216500  0.10795200  0.55463600  1
  C  195  1  0.28972000  0.10840700  0.55533700  1
  C  196  1  0.30160800  0.09892100  0.56811000  1
  C  197  1  0.33065500  0.08281300  0.56092000  1
  C  198  1  0.34803100  0.07493300  0.54015700  1
  C  199  1  0.33601600  0.08362100  0.52694500  1
  C  200  1  0.30677800  0.09962400  0.53419900  1
  C  201  1  0.21055200  0.09694700  0.53225300  1
  C  202  1  0.18087100  0.08121600  0.52441100  1
  C  203  1  0.16262100  0.07520300  0.53856400  1
  C  204  1  0.17464500  0.08519300  0.56058800  1
  C  205  1  0.20462900  0.10079200  0.56826000  1
  C  226  1  0.25508100  0.37123400  0.83142700  1
  C  227  1  0.22023700  0.38271600  0.84000700  1
  C  228  1  0.22069100  0.40525100  0.85549600  1
  C  229  1  0.25585100  0.41722600  0.86317900  1
  C  230  1  0.29045300  0.40553300  0.85316900  1
  C  231  1  0.29030500  0.38291600  0.83791100  1
  C  232  1  0.25612900  0.44208500  0.87841900  1
  C  233  1  0.25546900  0.44968400  0.86153600  1
  C  234  1  0.29003300  0.45326400  0.85279400  1
  C  235  1  0.28938200  0.45840600  0.83588100  1
  C  236  1  0.25409400  0.45914500  0.82628200  1
  C  237  1  0.21942100  0.45510300  0.83426700  1
  C  238  1  0.22031800  0.45006800  0.85122500  1
  C  239  1  0.22267100  0.45059000  0.89478600  1
  C  240  1  0.29024200  0.45077600  0.89428900  1
  C  241  1  0.30210000  0.47304400  0.90382100  1
  C  242  1  0.33115600  0.48194400  0.91991700  1
  C  243  1  0.34858100  0.46902800  0.92773600  1
  C  244  1  0.33659500  0.44711700  0.91900700  1
  C  245  1  0.30735100  0.43838800  0.90301700  1
  C  246  1  0.21113300  0.43928000  0.90587500  1
  C  247  1  0.18148700  0.44720100  0.92163400  1
  C  248  1  0.16316200  0.46733100  0.92757500  1
  C  249  1  0.17512200  0.47930600  0.91750900  1
  C  250  1  0.20509200  0.47135400  0.90189600  1
  C  271  1  0.91649900  0.52802500  0.49740000  1
  C  272  1  0.93194400  0.50769400  0.48108800  1
  C  273  1  0.96633400  0.49896100  0.48461000  1
  C  274  1  0.98541900  0.51100300  0.50518000  1
  C  275  1  0.96988700  0.53116100  0.52158400  1
  C  276  1  0.93577300  0.53953300  0.51776200  1
  C  278  1  0.02026700  0.50368600  0.51002900  1
  C  279  1  0.05556600  0.50998300  0.50463400  1
  C  280  1  0.09105000  0.50445700  0.51032000  1
  C  281  1  0.09201100  0.49237400  0.52137900  1
  C  282  1  0.05657000  0.48598800  0.52663600  1
  C  283  1  0.02049800  0.49151600  0.52118900  1
  C  288  1  0.98180500  0.47768400  0.46686500  1
  C  293  1  0.98399100  0.48487900  0.52754700  1
  C  297  1  0.12697700  0.48836400  0.52827200  1
  C  298  1  0.88377200  0.53711500  0.49375900  1
  C  301  1  0.91633600  0.97314000  0.47457200  1
  C  302  1  0.93174800  0.97717000  0.49490800  1
  C  303  1  0.96612400  0.98943400  0.50364800  1
  C  304  1  0.98522700  0.99796300  0.49160700  1
  C  305  1  0.96972900  0.99420100  0.47144400  1
  C  306  1  0.93562700  0.98199900  0.46306600  1
  C  308  1  0.02005500  0.01014700  0.49893700  1
  C  309  1  0.05537200  0.99847300  0.49264600  1
  C  310  1  0.09083900  0.00970300  0.49817400  1
  C  311  1  0.09175600  0.03284500  0.51026700  1
  C  312  1  0.05630100  0.04447100  0.51666600  1
  C  313  1  0.02024900  0.03347800  0.51111900  1
  C  318  1  0.98156300  0.99297100  0.52492800  1
  C  323  1  0.98372000  0.04645300  0.51775000  1
  C  327  1  0.12670800  0.04376300  0.51428200  1
  C  328  1  0.88361800  0.96040500  0.46548000  1
  C  331  1  0.91680200  0.50538000  0.02965800  1
  C  332  1  0.93221700  0.52170100  0.02564400  1
  C  333  1  0.96659900  0.51818800  0.01337800  1
  C  334  1  0.98570400  0.49761700  0.00483100  1
  C  335  1  0.97020100  0.48120300  0.00857400  1
  C  336  1  0.93608300  0.48501200  0.02077100  1
  C  338  1  0.02055300  0.49277700  0.99265500  1
  C  339  1  0.05584900  0.49817500  0.00433300  1
  C  340  1  0.09133400  0.49249000  0.99310700  1
  C  341  1  0.09228600  0.48145000  0.96996700  1
  C  342  1  0.05684200  0.47622300  0.95833700  1
  C  343  1  0.02077600  0.48164800  0.96932500  1
  C  348  1  0.98204100  0.53594400  0.00985600  1
  C  353  1  0.98426500  0.47529300  0.95634200  1
  C  357  1  0.12724900  0.47454600  0.95905000  1
  C  358  1  0.88408200  0.50900900  0.04239700  1
  C  361  1  0.41657100  0.47621100  0.50367100  1
  C  362  1  0.43201700  0.49653600  0.51998400  1
  C  363  1  0.46638900  0.50527600  0.51644700  1
  C  364  1  0.48545600  0.49324700  0.49586300  1
  C  365  1  0.46992700  0.47309400  0.47946100  1
  C  366  1  0.43583200  0.46471400  0.48329700  1
  C  368  1  0.52028300  0.50057200  0.49099700  1
  C  369  1  0.55560000  0.49427400  0.49636300  1
  C  370  1  0.59106400  0.49981700  0.49066600  1
  C  371  1  0.59198400  0.51192600  0.47963400  1
  C  372  1  0.55652300  0.51833100  0.47442400  1
  C  373  1  0.52047100  0.51277200  0.47986700  1
  C  378  1  0.48185500  0.52654900  0.53419200  1
  C  383  1  0.48394200  0.51941000  0.47353800  1
  C  387  1  0.62693000  0.51594800  0.47272400  1
  C  388  1  0.38385400  0.46711800  0.50732200  1
  C  391  1  0.41624700  0.03119200  0.52641700  1
  C  392  1  0.43171300  0.02716100  0.50608600  1
  C  393  1  0.46611400  0.01490700  0.49736500  1
  C  394  1  0.48519200  0.00639200  0.50942200  1
  C  395  1  0.46964300  0.01015800  0.52958100  1
  C  396  1  0.43551900  0.02235200  0.53794100  1
  C  398  1  0.52004000  0.99421600  0.50211200  1
  C  399  1  0.55533900  0.00589800  0.50841400  1
  C  400  1  0.59082000  0.99467600  0.50289400  1
  C  401  1  0.59177600  0.97153500  0.49081100  1
  C  402  1  0.55633200  0.95990100  0.48441900  1
  C  403  1  0.52026600  0.97088600  0.48994400  1
  C  408  1  0.48160600  0.01136300  0.47608800  1
  C  413  1  0.48375400  0.95790100  0.48330300  1
  C  417  1  0.62673300  0.96061700  0.48680300  1
  C  418  1  0.38350100  0.04391900  0.53549200  1
  C  421  1  0.41674500  0.49898500  0.97149900  1
  C  422  1  0.43215600  0.48267300  0.97552500  1
  C  423  1  0.46654300  0.48618900  0.98777700  1
  C  424  1  0.48565600  0.50675200  0.99629500  1
  C  425  1  0.47015800  0.52315400  0.99253300  1
  C  426  1  0.43604300  0.51934100  0.98034600  1
  C  428  1  0.52049100  0.51159600  0.00846700  1
  C  429  1  0.55579900  0.50619500  0.99678100  1
  C  430  1  0.59127500  0.51188900  0.00799900  1
  C  431  1  0.59221300  0.52295300  0.03114100  1
  C  432  1  0.55676300  0.52820000  0.04277900  1
  C  433  1  0.52070300  0.52275900  0.03179800  1
  C  438  1  0.48198200  0.46844400  0.99131500  1
  C  443  1  0.48418200  0.52912200  0.04478700  1
  C  447  1  0.62717300  0.52985600  0.04204800  1
  C  448  1  0.38401300  0.49534900  0.95877500  1
  C  451  1  0.76746400  0.52309500  0.31241300  1
  C  452  1  0.72947000  0.52492000  0.30593200  1
  C  453  1  0.72244600  0.52690600  0.28719000  1
  C  454  1  0.75456600  0.52660800  0.27438800  1
  C  455  1  0.79238100  0.52387200  0.28025700  1
  C  456  1  0.79873100  0.52204500  0.29898900  1
  C  458  1  0.75039500  0.53124300  0.25705900  1
  C  459  1  0.74951700  0.55355300  0.26275200  1
  C  460  1  0.74433600  0.55945600  0.24660900  1
  C  461  1  0.74049100  0.54316300  0.22435500  1
  C  462  1  0.74173100  0.52082400  0.21861600  1
  C  463  1  0.74660400  0.51454200  0.23470800  1
  C  468  1  0.68207700  0.52989600  0.28172900  1
  C  473  1  0.74728400  0.49086900  0.22804900  1
  C  477  1  0.73452500  0.54933700  0.20880800  1
  C  478  1  0.77481900  0.52402800  0.33224600  1
  C  481  1  0.76716300  0.79318300  0.47969500  1
  C  482  1  0.72919700  0.78481900  0.47780800  1
  C  483  1  0.72222800  0.76407600  0.47579800  1
  C  484  1  0.75437400  0.75161300  0.47613700  1
  C  485  1  0.79216000  0.76026900  0.47892700  1
  C  486  1  0.79845700  0.78082300  0.48073600  1
  C  488  1  0.75027300  0.72964400  0.47149800  1
  C  489  1  0.74951000  0.71302600  0.44918800  1
  C  490  1  0.74446000  0.69096900  0.44328000  1
  C  491  1  0.74060000  0.68500200  0.45956800  1
  C  492  1  0.74170300  0.70160500  0.48190900  1
  C  493  1  0.74646200  0.72398900  0.48819500  1
  C  498  1  0.68189200  0.75556900  0.47275400  1
  C  503  1  0.74701300  0.74100400  0.51186900  1
  C  507  1  0.73476900  0.66326500  0.45337900  1
  C  508  1  0.77449000  0.81209700  0.47876367  1
  C  511  1  0.76714000  0.69039000  0.20951100  1
  C  512  1  0.72914600  0.69688300  0.21782900  1
  C  513  1  0.72212900  0.71559400  0.23858400  1
  C  514  1  0.75425500  0.72836300  0.25109300  1
  C  515  1  0.79207100  0.72249800  0.24247800  1
  C  516  1  0.79841600  0.70376500  0.22191800  1
  C  518  1  0.75008300  0.74569100  0.27306200  1
  C  519  1  0.74917800  0.73999400  0.28967600  1
  C  520  1  0.74403400  0.75614100  0.31172700  1
  C  521  1  0.74022300  0.77839800  0.31769400  1
  C  522  1  0.74145300  0.78413900  0.30109400  1
  C  523  1  0.74631700  0.76804500  0.27871700  1
  C  528  1  0.68176100  0.72106300  0.24705100  1
  C  533  1  0.74702000  0.77471000  0.26170800  1
  C  537  1  0.73429800  0.79395000  0.33942100  1
  C  538  1  0.77448800  0.67058100  0.19057400  1
  C  541  1  0.26725300  0.48148200  0.68875200  1
  C  542  1  0.22930000  0.47964700  0.69528700  1
  C  543  1  0.22239000  0.47757800  0.71399400  1
  C  544  1  0.25458600  0.47782200  0.72671400  1
  C  545  1  0.29235700  0.48058000  0.72080500  1
  C  546  1  0.29859500  0.48245300  0.70209000  1
  C  548  1  0.25050500  0.47318000  0.74404400  1
  C  549  1  0.24966600  0.45086900  0.73834700  1
  C  550  1  0.24455700  0.44496100  0.75449400  1
  C  551  1  0.24074500  0.46125000  0.77675300  1
  C  552  1  0.24193700  0.48359000  0.78249500  1
  C  553  1  0.24674200  0.48987800  0.76640100  1
  C  558  1  0.18206300  0.47455900  0.71949800  1
  C  563  1  0.24739100  0.51355200  0.77306500  1
  C  567  1  0.23481700  0.45507100  0.79230200  1
  C  568  1  0.27449500  0.48061200  0.66893500  1
  C  571  1  0.26708500  0.21113000  0.52129400  1
  C  572  1  0.22910900  0.21946700  0.52312600  1
  C  573  1  0.22214700  0.24022700  0.52517400  1
  C  574  1  0.25430300  0.25271400  0.52489500  1
  C  575  1  0.29209700  0.24407200  0.52213700  1
  C  576  1  0.29839000  0.22349000  0.52026700  1
  C  578  1  0.25019000  0.27469000  0.52955400  1
  C  579  1  0.24934700  0.29129500  0.55186800  1
  C  580  1  0.24420900  0.31335200  0.55779100  1
  C  581  1  0.24037400  0.31933200  0.54151200  1
  C  582  1  0.24158100  0.30274300  0.51916700  1
  C  583  1  0.24641200  0.28036100  0.51286700  1
  C  588  1  0.18180300  0.24872700  0.52819900  1
  C  593  1  0.24706100  0.26336000  0.48918700  1
  C  597  1  0.23443200  0.34106300  0.54770400  1
  C  598  1  0.27437600  0.19219200  0.52216800  1
  C  601  1  0.26728200  0.31403000  0.79146900  1
  C  602  1  0.22927600  0.30758500  0.78317500  1
  C  603  1  0.22220200  0.28884900  0.76244900  1
  C  604  1  0.25428800  0.27601700  0.74993500  1
  C  605  1  0.29211700  0.28185000  0.75852200  1
  C  606  1  0.29851700  0.30059900  0.77906100  1
  C  608  1  0.25008000  0.25868100  0.72797500  1
  C  609  1  0.24920800  0.26436400  0.71135000  1
  C  610  1  0.24406200  0.24821100  0.68930400  1
  C  611  1  0.24020900  0.22596100  0.68335700  1
  C  612  1  0.24141600  0.22023300  0.69996400  1
  C  613  1  0.24627300  0.23633400  0.72233600  1
  C  618  1  0.18182300  0.28341700  0.75401400  1
  C  623  1  0.24692700  0.22968700  0.73936000  1
  C  627  1  0.23429900  0.21040500  0.66163200  1
  C  628  1  0.27470600  0.33385800  0.81036100  1
  C  631  1  0.49458700  0.38401200  0.54017200  1
  C  632  1  0.45970500  0.38692600  0.55162900  1
  C  633  1  0.46008800  0.39398200  0.57416600  1
  C  634  1  0.49521800  0.39826000  0.58615900  1
  C  635  1  0.52986800  0.39655900  0.57449600  1
  C  636  1  0.52977700  0.38921100  0.55188100  1
  C  637  1  0.49542600  0.40785200  0.61101600  1
  C  638  1  0.49477100  0.43233800  0.61862700  1
  C  639  1  0.52934400  0.44464900  0.62223500  1
  C  640  1  0.52870400  0.46670600  0.62738100  1
  C  641  1  0.49342600  0.47705200  0.62810900  1
  C  642  1  0.45874300  0.46503700  0.62406100  1
  C  643  1  0.45962000  0.44304300  0.61902100  1
  C  644  1  0.46194100  0.39997000  0.61948300  1
  C  645  1  0.52949800  0.40066100  0.61973000  1
  C  646  1  0.54132100  0.41340000  0.64200000  1
  C  647  1  0.57036900  0.40620600  0.65090700  1
  C  648  1  0.58783200  0.38547700  0.63799000  1
  C  649  1  0.57590300  0.37230400  0.61606900  1
  C  650  1  0.54664300  0.37955400  0.60733500  1
  C  651  1  0.45040900  0.37757200  0.60812900  1
  C  652  1  0.42072000  0.36972200  0.61600900  1
  C  653  1  0.40233900  0.38389200  0.63613000  1
  C  654  1  0.41428200  0.40593200  0.64813700  1
  C  655  1  0.44429900  0.41361000  0.64023100  1
  C  676  1  0.49432000  0.67679400  0.63303200  1
  C  677  1  0.45944200  0.68530500  0.63007400  1
  C  678  1  0.45983700  0.70077300  0.62300000  1
  C  679  1  0.49497300  0.70846600  0.61869200  1
  C  680  1  0.52961300  0.69849900  0.62038800  1
  C  681  1  0.52950800  0.68326500  0.62777800  1
  C  682  1  0.49519700  0.72371500  0.60908200  1
  C  683  1  0.49448500  0.70682900  0.58460000  1
  C  684  1  0.52904400  0.69810100  0.57226600  1
  C  685  1  0.52837700  0.68119200  0.55020900  1
  C  686  1  0.49308400  0.67158900  0.53988600  1
  C  687  1  0.45841700  0.67957200  0.55192300  1
  C  688  1  0.45932400  0.69653100  0.57391500  1
  C  689  1  0.46174200  0.74008200  0.61698500  1
  C  690  1  0.52930300  0.73959500  0.61624700  1
  C  691  1  0.54111700  0.74911300  0.60348900  1
  C  692  1  0.57017300  0.76520900  0.61065600  1
  C  693  1  0.58764700  0.77303800  0.63138000  1
  C  694  1  0.57569800  0.76432000  0.64458000  1
  C  695  1  0.54644600  0.74833400  0.63735100  1
  C  696  1  0.45021900  0.75114200  0.63938700  1
  C  697  1  0.42054900  0.76688600  0.64724600  1
  C  698  1  0.40218600  0.77283600  0.63307700  1
  C  699  1  0.41412300  0.76279000  0.61103100  1
  C  700  1  0.44411400  0.74719000  0.60334700  1
  C  721  1  0.49439300  0.47685500  0.34014300  1
  C  722  1  0.45954700  0.46537700  0.33158100  1
  C  723  1  0.46000700  0.44283300  0.31612400  1
  C  724  1  0.49516700  0.43084400  0.30846600  1
  C  725  1  0.52976000  0.44253200  0.31848300  1
  C  726  1  0.52960900  0.46515900  0.33370500  1
  C  727  1  0.49545300  0.40598400  0.29324300  1
  C  728  1  0.49476800  0.39840000  0.31013800  1
  C  729  1  0.52931600  0.39480200  0.31886900  1
  C  730  1  0.52864100  0.38966500  0.33578500  1
  C  731  1  0.49334600  0.38894700  0.34539700  1
  C  732  1  0.45868700  0.39301400  0.33742700  1
  C  733  1  0.45960700  0.39804500  0.32046800  1
  C  734  1  0.46201700  0.39747500  0.27687400  1
  C  735  1  0.52958500  0.39727300  0.27737100  1
  C  736  1  0.54141800  0.37500100  0.26784200  1
  C  737  1  0.57051200  0.36608800  0.25176100  1
  C  738  1  0.58800400  0.37899600  0.24394800  1
  C  739  1  0.57605400  0.40091400  0.25267900  1
  C  740  1  0.54676100  0.40965500  0.26865200  1
  C  741  1  0.45054000  0.40876600  0.26575700  1
  C  742  1  0.42091700  0.40084300  0.24999500  1
  C  743  1  0.40255700  0.38073100  0.24408000  1
  C  744  1  0.41444700  0.36877800  0.25417900  1
  C  745  1  0.44439400  0.37673200  0.26979600  1
  C  766  1  0.99433162  0.30781600  0.80212800  1
  C  767  1  0.95947860  0.30494500  0.79067100  1
  C  768  1  0.95990960  0.29785000  0.76812500  1
  C  769  1  0.99506162  0.29346200  0.75611800  1
  C  770  1  0.02966600  0.29510000  0.76778100  1
  C  771  1  0.02953600  0.30251800  0.79041100  1
  C  772  1  0.99533062  0.28383000  0.73125700  1
  C  773  1  0.99464162  0.25935100  0.72368200  1
  C  774  1  0.02918500  0.24699700  0.72000900  1
  C  775  1  0.02849900  0.22494300  0.71486900  1
  C  776  1  0.99320862  0.21463900  0.71420800  1
  C  777  1  0.95855760  0.22670300  0.71834000  1
  C  778  1  0.95948160  0.24869300  0.72336700  1
  C  779  1  0.96189260  0.29170100  0.72275400  1
  C  780  1  0.02945800  0.29099100  0.72254500  1
  C  781  1  0.04121500  0.27825400  0.70025500  1
  C  782  1  0.07029400  0.28541200  0.69132600  1
  C  783  1  0.08784100  0.30611300  0.70423400  1
  C  784  1  0.07595600  0.31929300  0.72616600  1
  C  785  1  0.04669200  0.31206900  0.73492800  1
  C  786  1  0.95046760  0.31411800  0.73403600  1
  C  787  1  0.92081560  0.32196100  0.72613000  1
  C  788  1  0.90240660  0.30776700  0.70603600  1
  C  789  1  0.91423660  0.28570000  0.69410300  1
  C  790  1  0.94419560  0.27802500  0.70204100  1
  C  811  1  0.99424462  0.01490100  0.70917100  1
  C  812  1  0.95936560  0.00644100  0.71219700  1
  C  813  1  0.95977360  0.99097895  0.71927795  1
  C  814  1  0.99492262  0.98321390  0.72348690  1
  C  815  1  0.02956500  0.99312595  0.72170695  1
  C  816  1  0.02945500  0.00836700  0.71432700  1
  C  817  1  0.99512162  0.96795790  0.73308790  1
  C  818  1  0.99443062  0.98483290  0.75756990  1
  C  819  1  0.02900900  0.99359095  0.76985795  1
  C  820  1  0.02836900  0.01049000  0.79192000  1
  C  821  1  0.99307862  0.02006800  0.80229000  1
  C  822  1  0.95838960  0.01205700  0.79029700  1
  C  823  1  0.95926960  0.99510095  0.76830395  1
  C  824  1  0.96165560  0.95160490  0.72519690  1
  C  825  1  0.02921100  0.95205990  0.72589790  1
  C  826  1  0.04109900  0.94257390  0.73867090  1
  C  827  1  0.07014600  0.92646590  0.73148090  1
  C  828  1  0.08752200  0.91858590  0.71071790  1
  C  829  1  0.07550700  0.92727390  0.69750590  1
  C  830  1  0.04626900  0.94327690  0.70475990  1
  C  831  1  0.95004260  0.94059990  0.70281390  1
  C  832  1  0.92036160  0.92486890  0.69497190  1
  C  833  1  0.90211160  0.91885590  0.70912490  1
  C  834  1  0.91413560  0.92884590  0.73114890  1
  C  835  1  0.94411960  0.94444490  0.73882090  1
  C  856  1  0.99457162  0.21488700  0.00198800  1
  C  857  1  0.95972760  0.22636900  0.01056800  1
  C  858  1  0.96018160  0.24890400  0.02605700  1
  C  859  1  0.99534162  0.26087900  0.03374000  1
  C  860  1  0.02994400  0.24918600  0.02373000  1
  C  861  1  0.02979600  0.22656900  0.00847200  1
  C  862  1  0.99561962  0.28573800  0.04898000  1
  C  863  1  0.99495962  0.29333700  0.03209700  1
  C  864  1  0.02952400  0.29691700  0.02335500  1
  C  865  1  0.02887300  0.30205900  0.00644200  1
  C  866  1  0.99358462  0.30279800  0.99684300  1
  C  867  1  0.95891160  0.29875600  0.00482800  1
  C  868  1  0.95980860  0.29372100  0.02178600  1
  C  869  1  0.96216160  0.29424300  0.06534700  1
  C  870  1  0.02973300  0.29442900  0.06485000  1
  C  871  1  0.04159100  0.31669700  0.07438200  1
  C  872  1  0.07064700  0.32559700  0.09047800  1
  C  873  1  0.08807200  0.31268100  0.09829700  1
  C  874  1  0.07608600  0.29077000  0.08956800  1
  C  875  1  0.04684200  0.28204100  0.07357800  1
  C  876  1  0.95062360  0.28293300  0.07643600  1
  C  877  1  0.92097760  0.29085400  0.09219500  1
  C  878  1  0.90265260  0.31098400  0.09813600  1
  C  879  1  0.91461260  0.32295900  0.08807000  1
  C  880  1  0.94458260  0.31500700  0.07245700  1
  C  901  1  0.65599000  0.37167800  0.66796100  1
  C  902  1  0.67143500  0.35134700  0.65164900  1
  C  903  1  0.70582500  0.34261400  0.65517100  1
  C  904  1  0.72491000  0.35465600  0.67574100  1
  C  905  1  0.70937800  0.37481400  0.69214500  1
  C  906  1  0.67526400  0.38318600  0.68832300  1
  C  908  1  0.75975800  0.34733900  0.68059000  1
  C  909  1  0.79505700  0.35363600  0.67519500  1
  C  910  1  0.83054100  0.34811000  0.68088100  1
  C  911  1  0.83150200  0.33602700  0.69194000  1
  C  912  1  0.79606100  0.32964100  0.69719700  1
  C  913  1  0.75998900  0.33516900  0.69175000  1
  C  918  1  0.72129600  0.32133700  0.63742600  1
  C  923  1  0.72348200  0.32853200  0.69810800  1
  C  927  1  0.86646800  0.33201700  0.69883300  1
  C  928  1  0.62326300  0.38076800  0.66432000  1
  C  931  1  0.65582700  0.81679300  0.64513300  1
  C  932  1  0.67123900  0.82082300  0.66546900  1
  C  933  1  0.70561500  0.83308700  0.67420900  1
  C  934  1  0.72471800  0.84161600  0.66216800  1
  C  935  1  0.70922000  0.83785400  0.64200500  1
  C  936  1  0.67511800  0.82565200  0.63362700  1
  C  938  1  0.75954600  0.85380000  0.66949800  1
  C  939  1  0.79486300  0.84212600  0.66320700  1
  C  940  1  0.83033000  0.85335600  0.66873500  1
  C  941  1  0.83124700  0.87649800  0.68082800  1
  C  942  1  0.79579200  0.88812400  0.68722700  1
  C  943  1  0.75974000  0.87713100  0.68168000  1
  C  948  1  0.72105400  0.83662400  0.69548900  1
  C  953  1  0.72321100  0.89010600  0.68831100  1
  C  957  1  0.86619900  0.88741600  0.68484300  1
  C  958  1  0.62310900  0.80405800  0.63604100  1
  C  961  1  0.65629300  0.34903300  0.20021900  1
  C  962  1  0.67170800  0.36535400  0.19620500  1
  C  963  1  0.70609000  0.36184100  0.18393900  1
  C  964  1  0.72519500  0.34127000  0.17539200  1
  C  965  1  0.70969200  0.32485600  0.17913500  1
  C  966  1  0.67557400  0.32866500  0.19133200  1
  C  968  1  0.76004400  0.33643000  0.16321600  1
  C  969  1  0.79534000  0.34182800  0.17489400  1
  C  970  1  0.83082500  0.33614300  0.16366800  1
  C  971  1  0.83177700  0.32510300  0.14052800  1
  C  972  1  0.79633300  0.31987600  0.12889800  1
  C  973  1  0.76026700  0.32530100  0.13988600  1
  C  978  1  0.72153200  0.37959700  0.18041700  1
  C  983  1  0.72375600  0.31894600  0.12690300  1
  C  987  1  0.86674000  0.31819900  0.12961100  1
  C  988  1  0.62357300  0.35266200  0.21295800  1
  C  991  1  0.15606200  0.31986400  0.67423200  1
  C  992  1  0.17150800  0.34018900  0.69054500  1
  C  993  1  0.20588000  0.34892900  0.68700800  1
  C  994  1  0.22494700  0.33690000  0.66642400  1
  C  995  1  0.20941800  0.31674700  0.65002200  1
  C  996  1  0.17532300  0.30836700  0.65385800  1
  C  998  1  0.25977400  0.34422500  0.66155800  1
  C  999  1  0.29509100  0.33792700  0.66692400  1
  C  1000  1  0.33055500  0.34347000  0.66122700  1
  C  1001  1  0.33147500  0.35557900  0.65019500  1
  C  1002  1  0.29601400  0.36198400  0.64498500  1
  C  1003  1  0.25996200  0.35642500  0.65042800  1
  C  1008  1  0.22134600  0.37020200  0.70475300  1
  C  1013  1  0.22343300  0.36306300  0.64409900  1
  C  1017  1  0.36642100  0.35960100  0.64328500  1
  C  1018  1  0.12334500  0.31077100  0.67788300  1
  C  1021  1  0.15573800  0.87484500  0.69697800  1
  C  1022  1  0.17120400  0.87081400  0.67664700  1
  C  1023  1  0.20560500  0.85856000  0.66792600  1
  C  1024  1  0.22468300  0.85004500  0.67998300  1
  C  1025  1  0.20913400  0.85381100  0.70014200  1
  C  1026  1  0.17501000  0.86600500  0.70850200  1
  C  1028  1  0.25953100  0.83786900  0.67267300  1
  C  1029  1  0.29483000  0.84955100  0.67897500  1
  C  1030  1  0.33031100  0.83832900  0.67345500  1
  C  1031  1  0.33126700  0.81518800  0.66137200  1
  C  1032  1  0.29582300  0.80355400  0.65498000  1
  C  1033  1  0.25975700  0.81453900  0.66050500  1
  C  1038  1  0.22109700  0.85501600  0.64664900  1
  C  1043  1  0.22324500  0.80155400  0.65386400  1
  C  1047  1  0.36622400  0.80427000  0.65736400  1
  C  1048  1  0.12299200  0.88757200  0.70605300  1
  C  1051  1  0.15623600  0.34263800  0.14206000  1
  C  1052  1  0.17164700  0.32632600  0.14608600  1
  C  1053  1  0.20603400  0.32984200  0.15833800  1
  C  1054  1  0.22514700  0.35040500  0.16685600  1
  C  1055  1  0.20964900  0.36680700  0.16309400  1
  C  1056  1  0.17553400  0.36299400  0.15090700  1
  C  1058  1  0.25998200  0.35524900  0.17902800  1
  C  1059  1  0.29529000  0.34984800  0.16734200  1
  C  1060  1  0.33076600  0.35554200  0.17856000  1
  C  1061  1  0.33170400  0.36660600  0.20170200  1
  C  1062  1  0.29625400  0.37185300  0.21334000  1
  C  1063  1  0.26019400  0.36641200  0.20235900  1
  C  1068  1  0.22147300  0.31209700  0.16187600  1
  C  1073  1  0.22367300  0.37277500  0.21534800  1
  C  1077  1  0.36666400  0.37350900  0.21260900  1
  C  1078  1  0.12350400  0.33900200  0.12933600  1
  C  1081  1  0.50695500  0.36674800  0.48297400  1
  C  1082  1  0.46896100  0.36857300  0.47649300  1
  C  1083  1  0.46193700  0.37055900  0.45775090  1
  C  1084  1  0.49405700  0.37026100  0.44494890  1
  C  1085  1  0.53187200  0.36752500  0.45081790  1
  C  1086  1  0.53822200  0.36569800  0.46955000  1
  C  1088  1  0.48988600  0.37489600  0.42761990  1
  C  1089  1  0.48900800  0.39720600  0.43331290  1
  C  1090  1  0.48382700  0.40310900  0.41716990  1
  C  1091  1  0.47998200  0.38681600  0.39491593  1
  C  1092  1  0.48122200  0.36447700  0.38917690  1
  C  1093  1  0.48609500  0.35819500  0.40526890  1
  C  1098  1  0.42156800  0.37354900  0.45228990  1
  C  1103  1  0.48677500  0.33452200  0.39860990  1
  C  1107  1  0.47401600  0.39299000  0.37936900  1
  C  1108  1  0.51431000  0.36768100  0.50280700  1
  C  1111  1  0.50665400  0.63683600  0.65025590  1
  C  1112  1  0.46868800  0.62847200  0.64836890  1
  C  1113  1  0.46171900  0.60772900  0.64635890  1
  C  1114  1  0.49386500  0.59526600  0.64669790  1
  C  1115  1  0.53165100  0.60392200  0.64948790  1
  C  1116  1  0.53794800  0.62447600  0.65129690  1
  C  1118  1  0.48976400  0.57329700  0.64205890  1
  C  1119  1  0.48900100  0.55667900  0.61974890  1
  C  1120  1  0.48395100  0.53462200  0.61384090  1
  C  1121  1  0.48009100  0.52865500  0.63012900  1
  C  1122  1  0.48119400  0.54525800  0.65247000  1
  C  1123  1  0.48595300  0.56764200  0.65875590  1
  C  1128  1  0.42138300  0.59922200  0.64331490  1
  C  1133  1  0.48650400  0.58465700  0.68242990  1
  C  1137  1  0.47426000  0.50691800  0.62394000  1
  C  1138  1  0.51398100  0.65575000  0.64934400  1
  C  1141  1  0.50663100  0.53404300  0.38007200  1
  C  1142  1  0.46863700  0.54053600  0.38839000  1
  C  1143  1  0.46162000  0.55924700  0.40914500  1
  C  1144  1  0.49374600  0.57201600  0.42165400  1
  C  1145  1  0.53156200  0.56615100  0.41303900  1
  C  1146  1  0.53790700  0.54741800  0.39247900  1
  C  1148  1  0.48957400  0.58934400  0.44362300  1
  C  1149  1  0.48866900  0.58364700  0.46023700  1
  C  1150  1  0.48352500  0.59979400  0.48228800  1
  C  1151  1  0.47971400  0.62205100  0.48825500  1
  C  1152  1  0.48094400  0.62779200  0.47165500  1
  C  1153  1  0.48580800  0.61169800  0.44927800  1
  C  1158  1  0.42125200  0.56471600  0.41761200  1
  C  1163  1  0.48651100  0.61836300  0.43226900  1
  C  1167  1  0.47378900  0.63760300  0.50998200  1
  C  1168  1  0.51397900  0.51423400  0.36113500  1
  C  1171  1  0.00674400  0.32513500  0.85931300  1
  C  1172  1  0.96879060  0.32330000  0.86584800  1
  C  1173  1  0.96188060  0.32123100  0.88455500  1
  C  1174  1  0.99407662  0.32147500  0.89727500  1
  C  1175  1  0.03184800  0.32423300  0.89136600  1
  C  1176  1  0.03808600  0.32610600  0.87265100  1
  C  1178  1  0.98999560  0.31683300  0.91460500  1
  C  1179  1  0.98915660  0.29452200  0.90890800  1
  C  1180  1  0.98404760  0.28861400  0.92505500  1
  C  1181  1  0.98023560  0.30490300  0.94731400  1
  C  1182  1  0.98142760  0.32724300  0.95305600  1
  C  1183  1  0.98623260  0.33353100  0.93696200  1
  C  1188  1  0.92155360  0.31821200  0.89005900  1
  C  1193  1  0.98688160  0.35720500  0.94362600  1
  C  1197  1  0.97430760  0.29872400  0.96286300  1
  C  1198  1  0.01398600  0.32426500  0.83949600  1
  C  1201  1  0.00657600  0.05478300  0.69185500  1
  C  1202  1  0.96859960  0.06312000  0.69368700  1
  C  1203  1  0.96163760  0.08388000  0.69573500  1
  C  1204  1  0.99379362  0.09636700  0.69545600  1
  C  1205  1  0.03158800  0.08772500  0.69269800  1
  C  1206  1  0.03788100  0.06714300  0.69082800  1
  C  1208  1  0.98968060  0.11834300  0.70011500  1
  C  1209  1  0.98883760  0.13494800  0.72242900  1
  C  1210  1  0.98369960  0.15700500  0.72835200  1
  C  1211  1  0.97986460  0.16298500  0.71207300  1
  C  1212  1  0.98107160  0.14639600  0.68972800  1
  C  1213  1  0.98590260  0.12401400  0.68342800  1
  C  1218  1  0.92129360  0.09238000  0.69876000  1
  C  1223  1  0.98655160  0.10701300  0.65974800  1
  C  1227  1  0.97392260  0.18471600  0.71826500  1
  C  1228  1  0.01386700  0.03584500  0.69272900  1
  C  1231  1  0.00677300  0.15768300  0.96203000  1
  C  1232  1  0.96876660  0.15123800  0.95373600  1
  C  1233  1  0.96169260  0.13250200  0.93301000  1
  C  1234  1  0.99377862  0.11967000  0.92049600  1
  C  1235  1  0.03160800  0.12550300  0.92908300  1
  C  1236  1  0.03800800  0.14425200  0.94962200  1
  C  1238  1  0.98957060  0.10233400  0.89853600  1
  C  1239  1  0.98869860  0.10801700  0.88191100  1
  C  1240  1  0.98355260  0.09186400  0.85986500  1
  C  1241  1  0.97969960  0.06961400  0.85391800  1
  C  1242  1  0.98090660  0.06388600  0.87052500  1
  C  1243  1  0.98576360  0.07998700  0.89289700  1
  C  1248  1  0.92131360  0.12707000  0.92457500  1
  C  1253  1  0.98641760  0.07334000  0.90992100  1
  C  1257  1  0.97378960  0.05405800  0.83219300  1
  C  1258  1  0.01419700  0.17751100  0.98092200  1
  N  41  1  0.87638200  0.53417100  0.47457900  1
  N  42  1  0.63271300  0.53397900  0.47270900  1
  N  43  1  0.75284900  0.53545000  0.34887900  1
  N  44  1  0.75492500  0.65403600  0.46186800  1
  N  86  1  0.87618900  0.94419200  0.46845700  1
  N  87  1  0.63255700  0.94258000  0.46877200  1
  N  88  1  0.75254800  0.81729900  0.46735000  1
  N  89  1  0.75455800  0.81162900  0.34868200  1
  N  131  1  0.87660600  0.52819500  0.05860800  1
  N  132  1  0.63295900  0.52990500  0.06010900  1
  N  133  1  0.75256000  0.65394100  0.18538400  1
  N  134  1  0.75481500  0.54094900  0.19113600  1
  N  176  1  0.37642700  0.47008100  0.52650700  1
  N  177  1  0.13277800  0.47035700  0.52832900  1
  N  178  1  0.25255700  0.46912500  0.65231500  1
  N  179  1  0.25466700  0.35033500  0.53928500  1
  N  221  1  0.37607900  0.06013100  0.53251300  1
  N  222  1  0.13250600  0.06179600  0.53232100  1
  N  223  1  0.25247300  0.18704800  0.53366700  1
  N  224  1  0.25457800  0.19273100  0.65236400  1
  N  266  1  0.37661800  0.47617100  0.94253900  1
  N  267  1  0.13304700  0.47450500  0.94099100  1
  N  268  1  0.25277200  0.35050800  0.81559700  1
  N  269  1  0.25505800  0.46349500  0.80998600  1
  N  671  1  0.61587300  0.37782400  0.64514000  1
  N  672  1  0.37220400  0.37763200  0.64327000  1
  N  673  1  0.49234000  0.37910300  0.51944000  1
  N  674  1  0.49441600  0.49768900  0.63242900  1
  N  716  1  0.61568000  0.78784500  0.63901800  1
  N  717  1  0.37204800  0.78623300  0.63933300  1
  N  718  1  0.49203900  0.66095200  0.63791100  1
  N  719  1  0.49404900  0.65528200  0.51924300  1
  N  761  1  0.61609700  0.37184800  0.22916900  1
  N  762  1  0.37245000  0.37355800  0.23067000  1
  N  763  1  0.49205100  0.49759400  0.35594500  1
  N  764  1  0.49430600  0.38460200  0.36169700  1
  N  806  1  0.11591800  0.31373400  0.69706800  1
  N  807  1  0.87226900  0.31401000  0.69889000  1
  N  808  1  0.99204762  0.31277800  0.82287600  1
  N  809  1  0.99415762  0.19398800  0.70984600  1
  N  851  1  0.11557000  0.90378390  0.70307390  1
  N  852  1  0.87199700  0.90544890  0.70288190  1
  N  853  1  0.99196362  0.03070100  0.70422800  1
  N  854  1  0.99406862  0.03638400  0.82292500  1
  N  896  1  0.11610900  0.31982400  0.11310000  1
  N  897  1  0.87253800  0.31815800  0.11155200  1
  N  898  1  0.99226262  0.19416100  0.98615800  1
  N  899  1  0.99454862  0.30714800  0.98054700  1
