# generated using pymatgen
data_H19C33(N2O)3
_symmetry_space_group_name_H-M   'P 1'
_cell_length_a   61.96720000
_cell_length_b   61.95680000
_cell_length_c   72.94490000
_cell_angle_alpha   89.99890000
_cell_angle_beta   90.00000000
_cell_angle_gamma   90.00000000
_symmetry_Int_Tables_number   1
_chemical_formula_structural   H19C33(N2O)3
_chemical_formula_sum   'H608 C1056 N192 O96'
_cell_volume   280056.58253959
_cell_formula_units_Z   32
loop_
 _symmetry_equiv_pos_site_id
 _symmetry_equiv_pos_as_xyz
  1  'x, y, z'
loop_
 _atom_site_type_symbol
 _atom_site_label
 _atom_site_symmetry_multiplicity
 _atom_site_fract_x
 _atom_site_fract_y
 _atom_site_fract_z
 _atom_site_occupancy
  H  49  1  0.25347400  0.32228200  0.94715600  1
  H  50  1  0.23455900  0.30314200  0.92328300  1
  H  51  1  0.20634300  0.37153100  0.94545600  1
  H  52  1  0.18729600  0.35234100  0.92208200  1
  H  53  1  0.22397200  0.34782200  0.89080000  1
  H  54  1  0.21562000  0.35711600  0.85780900  1
  H  55  1  0.17419900  0.30944700  0.87391200  1
  H  56  1  0.14911400  0.28165500  0.87290000  1
  H  57  1  0.19206100  0.29238700  0.94072700  1
  H  58  1  0.16456600  0.26202900  0.93967500  1
  H  59  1  0.15606100  0.21610600  0.90518300  1
  H  60  1  0.14505400  0.18783600  0.92553600  1
  H  61  1  0.11487900  0.25969000  0.93279000  1
  H  62  1  0.10392500  0.23124600  0.95331700  1
  H  63  1  0.10906200  0.23273600  0.88864200  1
  H  64  1  0.09920000  0.24342100  0.85617900  1
  H  65  1  0.15765300  0.33038000  0.80769600  1
  H  66  1  0.12792000  0.30209200  0.80744400  1
  H  67  1  0.08432000  0.29344000  0.84337600  1
  H  68  1  0.05383100  0.28573500  0.82432900  1
  H  69  1  0.12262700  0.25127100  0.81155000  1
  H  70  1  0.09192500  0.24360000  0.79234200  1
  H  71  1  0.21677100  0.32613800  0.82229500  1
  H  72  1  0.23354800  0.34950900  0.80042600  1
  H  73  1  0.18449300  0.39587000  0.80846900  1
  H  74  1  0.16767400  0.37245700  0.83082700  1
  H  127  1  0.24643800  0.46145500  0.44719400  1
  H  128  1  0.26529300  0.48057800  0.42328000  1
  H  129  1  0.29364700  0.41227900  0.44552900  1
  H  130  1  0.31263500  0.43145100  0.42210800  1
  H  131  1  0.27594100  0.43587900  0.39082400  1
  H  132  1  0.28429400  0.42657100  0.35783700  1
  H  133  1  0.32566600  0.47431400  0.37390600  1
  H  134  1  0.35044300  0.50238300  0.37276600  1
  H  135  1  0.30780900  0.49137100  0.44072000  1
  H  136  1  0.33525000  0.52177600  0.43964700  1
  H  137  1  0.34380300  0.56775400  0.40511100  1
  H  138  1  0.35487600  0.59602500  0.42543500  1
  H  139  1  0.38486300  0.52410400  0.43277900  1
  H  140  1  0.39588300  0.55255400  0.45327800  1
  H  141  1  0.39092100  0.55088100  0.38869500  1
  H  142  1  0.40075900  0.54022000  0.35622400  1
  H  143  1  0.34203900  0.45353100  0.30761900  1
  H  144  1  0.37170500  0.48189600  0.30733500  1
  H  145  1  0.41528100  0.49010600  0.34325900  1
  H  146  1  0.44587800  0.49781000  0.32433400  1
  H  147  1  0.37733700  0.53283200  0.31165300  1
  H  148  1  0.40814600  0.54050200  0.29257200  1
  H  149  1  0.28303000  0.45763600  0.32236800  1
  H  150  1  0.26620400  0.43429900  0.30050100  1
  H  151  1  0.31531200  0.38795000  0.30837700  1
  H  152  1  0.33217900  0.41132700  0.33073300  1
  H  205  1  0.81971900  0.89599500  0.19743100  1
  H  206  1  0.83867900  0.87698700  0.17349900  1
  H  207  1  0.77033100  0.84897900  0.19596800  1
  H  208  1  0.78934100  0.82983800  0.17254300  1
  H  209  1  0.79382400  0.86688100  0.14139700  1
  H  210  1  0.78394200  0.85858700  0.10852100  1
  H  211  1  0.83128100  0.81655100  0.12421800  1
  H  212  1  0.86016900  0.79264900  0.12252800  1
  H  213  1  0.84908800  0.83401200  0.19097200  1
  H  214  1  0.87937300  0.80643600  0.18965000  1
  H  215  1  0.92527900  0.79869100  0.15482800  1
  H  216  1  0.95376100  0.78741900  0.17485900  1
  H  217  1  0.88205000  0.75692100  0.18219200  1
  H  218  1  0.91065700  0.74571600  0.20238800  1
  H  219  1  0.90886100  0.75203500  0.13782600  1
  H  220  1  0.89879000  0.74341200  0.10499000  1
  H  221  1  0.81075300  0.80152300  0.05765100  1
  H  222  1  0.84020100  0.77294300  0.05662800  1
  H  223  1  0.84873900  0.72919000  0.08852000  1
  H  224  1  0.85879600  0.70050900  0.06829000  1
  H  225  1  0.89392600  0.77025600  0.06267400  1
  H  226  1  0.90414600  0.74119600  0.04237700  1
  H  227  1  0.81425800  0.85979700  0.07293600  1
  H  228  1  0.79096200  0.87640400  0.05092600  1
  H  229  1  0.74487900  0.82702500  0.05871700  1
  H  230  1  0.76821600  0.81037500  0.08122000  1
  H  283  1  0.68014000  0.88786900  0.69748500  1
  H  284  1  0.66119500  0.90691000  0.67356600  1
  H  285  1  0.72967900  0.93472400  0.69591000  1
  H  286  1  0.71068400  0.95389600  0.67249100  1
  H  287  1  0.70598000  0.91681600  0.64138700  1
  H  288  1  0.71582700  0.92505300  0.60849400  1
  H  289  1  0.66878100  0.96738200  0.62428500  1
  H  290  1  0.63965400  0.99101300  0.62249000  1
  H  291  1  0.65090900  0.94988000  0.69100900  1
  H  292  1  0.62055900  0.97738300  0.68966300  1
  H  293  1  0.57457600  0.98507000  0.65480000  1
  H  294  1  0.54608900  0.99638000  0.67480500  1
  H  295  1  0.61782000  0.02681600  0.68217400  1
  H  296  1  0.58920500  0.03805800  0.70234700  1
  H  297  1  0.59105300  0.03174000  0.63781800  1
  H  298  1  0.60111900  0.04034900  0.60497900  1
  H  299  1  0.68917400  0.98224600  0.55765900  1
  H  300  1  0.65970400  0.01080100  0.55662400  1
  H  301  1  0.65119100  0.05449200  0.58851500  1
  H  302  1  0.64117300  0.08320700  0.56830300  1
  H  303  1  0.60593200  0.01351800  0.56265600  1
  H  304  1  0.59575200  0.04261000  0.54237500  1
  H  305  1  0.68561100  0.92392900  0.57295300  1
  H  306  1  0.70888400  0.90730800  0.55093800  1
  H  307  1  0.75495100  0.95671700  0.55863800  1
  H  308  1  0.73164500  0.97337400  0.58115800  1
  H  361  1  0.24175000  0.32310100  0.55587200  1
  H  362  1  0.26176100  0.30397900  0.57927000  1
  H  363  1  0.29374400  0.36657200  0.54974400  1
  H  364  1  0.31368400  0.34755300  0.57267600  1
  H  365  1  0.27857300  0.34981900  0.60642200  1
  H  366  1  0.28692700  0.35937300  0.63934800  1
  H  367  1  0.32278800  0.30643300  0.62569400  1
  H  368  1  0.35027700  0.28082500  0.62624900  1
  H  369  1  0.30536000  0.28892200  0.55893200  1
  H  370  1  0.33374400  0.25930200  0.56005400  1
  H  371  1  0.34521800  0.21551900  0.59473100  1
  H  372  1  0.35644200  0.18706100  0.57466000  1
  H  373  1  0.38472800  0.25943100  0.56576300  1
  H  374  1  0.39593700  0.23077400  0.54553500  1
  H  375  1  0.39261900  0.23412500  0.60997600  1
  H  376  1  0.40216100  0.24494000  0.64248000  1
  H  377  1  0.33910000  0.32777200  0.69192400  1
  H  378  1  0.36935000  0.30009200  0.69233200  1
  H  379  1  0.41501000  0.29449000  0.65660000  1
  H  380  1  0.44540600  0.28686700  0.67577700  1
  H  381  1  0.37722200  0.25055700  0.68711900  1
  H  382  1  0.40781600  0.24300300  0.70647400  1
  H  383  1  0.27965300  0.32707700  0.67304000  1
  H  384  1  0.26255500  0.34997300  0.69506200  1
  H  385  1  0.31598800  0.39228800  0.69362500  1
  H  386  1  0.33302800  0.36952400  0.67104100  1
  H  439  1  0.25801700  0.46061000  0.05580000  1
  H  440  1  0.23806800  0.47975600  0.07921900  1
  H  441  1  0.20598500  0.41716700  0.04976600  1
  H  442  1  0.18610800  0.43620700  0.07272400  1
  H  443  1  0.22130900  0.43397700  0.10643100  1
  H  444  1  0.21294600  0.42440400  0.13935000  1
  H  445  1  0.17702600  0.47730200  0.12569300  1
  H  446  1  0.14961700  0.50299100  0.12628500  1
  H  447  1  0.19442400  0.49480100  0.05891700  1
  H  448  1  0.16604900  0.52442800  0.06005000  1
  H  449  1  0.15464800  0.56826300  0.09473900  1
  H  450  1  0.14344700  0.59670700  0.07464500  1
  H  451  1  0.11513100  0.52434100  0.06578700  1
  H  452  1  0.10394600  0.55298700  0.04553400  1
  H  453  1  0.10722300  0.54963500  0.10999200  1
  H  454  1  0.09771000  0.53884600  0.14250900  1
  H  455  1  0.16077600  0.45599400  0.19193800  1
  H  456  1  0.13057100  0.48372900  0.19237100  1
  H  457  1  0.08492700  0.48927600  0.15668300  1
  H  458  1  0.05456500  0.49680600  0.17592500  1
  H  459  1  0.12267600  0.53330900  0.18713000  1
  H  460  1  0.09211600  0.54077700  0.20654500  1
  H  461  1  0.22017900  0.45666700  0.17303300  1
  H  462  1  0.23731900  0.43373300  0.19500600  1
  H  463  1  0.18390200  0.39139600  0.19356300  1
  H  464  1  0.16682200  0.41419600  0.17102600  1
  H  517  1  0.68096200  0.90083700  0.30578700  1
  H  518  1  0.66206900  0.88063600  0.32921000  1
  H  519  1  0.72429600  0.84882500  0.29899300  1
  H  520  1  0.70550500  0.82870200  0.32194900  1
  H  521  1  0.70829200  0.86396900  0.35561600  1
  H  522  1  0.71840400  0.85573100  0.38844100  1
  H  523  1  0.66533600  0.81972400  0.37546000  1
  H  524  1  0.63906000  0.79290500  0.37656100  1
  H  525  1  0.64715700  0.83647600  0.30868000  1
  H  526  1  0.61768900  0.80794400  0.31011400  1
  H  527  1  0.57412300  0.79733100  0.34518200  1
  H  528  1  0.54540100  0.78598400  0.32543900  1
  H  529  1  0.61748400  0.75700900  0.31643200  1
  H  530  1  0.58861100  0.74569000  0.29654300  1
  H  531  1  0.59239500  0.75017200  0.36093700  1
  H  532  1  0.60258500  0.74191300  0.39382300  1
  H  533  1  0.68655800  0.80490500  0.44192300  1
  H  534  1  0.65775100  0.77573200  0.44312500  1
  H  535  1  0.65193200  0.72971500  0.41155500  1
  H  536  1  0.64199900  0.70127700  0.43208600  1
  H  537  1  0.60542200  0.77043000  0.43605800  1
  H  538  1  0.59537100  0.74163400  0.45668000  1
  H  539  1  0.68674800  0.86332900  0.42231600  1
  H  540  1  0.70968300  0.88024500  0.44440500  1
  H  541  1  0.75152600  0.82642500  0.44313900  1
  H  542  1  0.72871700  0.80956100  0.42050200  1
  H  595  1  0.81894100  0.88295600  0.80583400  1
  H  596  1  0.83779800  0.90321500  0.82924200  1
  H  597  1  0.77564100  0.93496900  0.79888000  1
  H  598  1  0.79439600  0.95514500  0.82182200  1
  H  599  1  0.79150200  0.91997500  0.85554000  1
  H  600  1  0.78141100  0.92817800  0.88837900  1
  H  601  1  0.83456500  0.96408700  0.87543600  1
  H  602  1  0.86095200  0.99080600  0.87658900  1
  H  603  1  0.85280200  0.94730400  0.80868300  1
  H  604  1  0.88232400  0.97577700  0.81014600  1
  H  605  1  0.92585200  0.98654200  0.84524100  1
  H  606  1  0.95457600  0.99792800  0.82551400  1
  H  607  1  0.88243700  0.02671800  0.81640000  1
  H  608  1  0.91131400  0.03807500  0.79652700  1
  H  609  1  0.90742600  0.03371700  0.86089900  1
  H  610  1  0.89721300  0.04199100  0.89377900  1
  H  611  1  0.81338200  0.97884400  0.94191400  1
  H  612  1  0.84220000  0.00800400  0.94312800  1
  H  613  1  0.84797100  0.05408800  0.91158700  1
  H  614  1  0.85791200  0.08249500  0.93215300  1
  H  615  1  0.89448700  0.01333200  0.93603400  1
  H  616  1  0.90453900  0.04209100  0.95669100  1
  H  617  1  0.81314100  0.92048600  0.92227000  1
  H  618  1  0.79026800  0.90359800  0.94442000  1
  H  619  1  0.74846200  0.95743900  0.94323700  1
  H  620  1  0.77120400  0.97428000  0.92054100  1
  H  673  1  0.74639800  0.46165100  0.05247000  1
  H  674  1  0.76542600  0.48070700  0.07633000  1
  H  675  1  0.79329000  0.41216000  0.05416400  1
  H  676  1  0.81245000  0.43126600  0.07752100  1
  H  677  1  0.77559100  0.43605300  0.10875700  1
  H  678  1  0.78391300  0.42654500  0.14171000  1
  H  679  1  0.82589000  0.47375400  0.12560900  1
  H  680  1  0.85005100  0.50239700  0.12696800  1
  H  681  1  0.80818400  0.49098900  0.05878700  1
  H  682  1  0.83568900  0.52134200  0.05988000  1
  H  683  1  0.84361500  0.56748700  0.09448900  1
  H  684  1  0.85478200  0.59586600  0.07432100  1
  H  685  1  0.88521100  0.52411300  0.06708700  1
  H  686  1  0.89631400  0.55267300  0.04672800  1
  H  687  1  0.89018300  0.55137300  0.11140800  1
  H  688  1  0.89913700  0.54139500  0.14419900  1
  H  689  1  0.84150300  0.45344900  0.19212400  1
  H  690  1  0.87032300  0.48269100  0.19280200  1
  H  691  1  0.91375200  0.49112100  0.15968800  1
  H  692  1  0.94311800  0.50075300  0.17931800  1
  H  693  1  0.87366500  0.53584300  0.18715900  1
  H  694  1  0.90341800  0.54563700  0.20686000  1
  H  695  1  0.78294900  0.45728400  0.17723500  1
  H  696  1  0.76618100  0.43404000  0.19920000  1
  H  697  1  0.81514500  0.38756600  0.19123100  1
  H  698  1  0.83195900  0.41085500  0.16877500  1
  H  751  1  0.75348200  0.32214200  0.55245700  1
  H  752  1  0.73451700  0.30309800  0.57636000  1
  H  753  1  0.70651100  0.37155800  0.55413100  1
  H  754  1  0.68741700  0.35246600  0.57753700  1
  H  755  1  0.72429600  0.34774800  0.60878400  1
  H  756  1  0.71593800  0.35728100  0.64172600  1
  H  757  1  0.67402400  0.31001100  0.62564100  1
  H  758  1  0.64991900  0.28131100  0.62703100  1
  H  759  1  0.69171100  0.29279900  0.55881800  1
  H  760  1  0.66420600  0.26244800  0.55991300  1
  H  761  1  0.65632000  0.21627800  0.59448000  1
  H  762  1  0.64520400  0.18794200  0.57424600  1
  H  763  1  0.61470700  0.25968600  0.56713800  1
  H  764  1  0.60365100  0.23117100  0.54671300  1
  H  765  1  0.60968000  0.23244600  0.61141900  1
  H  766  1  0.60072700  0.24241200  0.64421100  1
  H  767  1  0.65839800  0.33031800  0.69215900  1
  H  768  1  0.62960400  0.30105000  0.69284800  1
  H  769  1  0.58616000  0.29261600  0.65971900  1
  H  770  1  0.55679100  0.28297800  0.67934400  1
  H  771  1  0.62625500  0.24792200  0.68721100  1
  H  772  1  0.59650200  0.23812400  0.70691000  1
  H  773  1  0.71693400  0.32644600  0.67721800  1
  H  774  1  0.73377200  0.34964700  0.69917700  1
  H  775  1  0.68484600  0.39618800  0.69130500  1
  H  776  1  0.66796400  0.37294100  0.66885600  1
  H  829  1  0.17981900  0.88837100  0.80210300  1
  H  830  1  0.16088600  0.90741600  0.82602600  1
  H  831  1  0.22977800  0.93473600  0.80417100  1
  H  832  1  0.21081300  0.95390500  0.82760700  1
  H  833  1  0.20554900  0.91658200  0.85848500  1
  H  834  1  0.21553800  0.92465300  0.89137400  1
  H  835  1  0.16894700  0.96743300  0.87573100  1
  H  836  1  0.14058000  0.99203100  0.87743200  1
  H  837  1  0.15148000  0.95119100  0.80873700  1
  H  838  1  0.12158900  0.97923900  0.81017300  1
  H  839  1  0.07564300  0.98523300  0.84388200  1
  H  840  1  0.04734900  0.99760200  0.82413600  1
  H  841  1  0.11865100  0.02977300  0.81956700  1
  H  842  1  0.09019400  0.04208700  0.79962100  1
  H  843  1  0.09093400  0.03175700  0.86288300  1
  H  844  1  0.10082100  0.03983800  0.89583700  1
  H  845  1  0.18981000  0.98220600  0.94226300  1
  H  846  1  0.16045300  0.01086900  0.94350100  1
  H  847  1  0.15115900  0.05466300  0.91161100  1
  H  848  1  0.14089600  0.08342000  0.93167000  1
  H  849  1  0.10658200  0.01334500  0.93792600  1
  H  850  1  0.09615100  0.04249000  0.95806000  1
  H  851  1  0.18581900  0.92384800  0.92705600  1
  H  852  1  0.20918000  0.90728600  0.94903800  1
  H  853  1  0.25530600  0.95656700  0.94098200  1
  H  854  1  0.23191100  0.97315900  0.91849500  1
  H  907  1  0.32013400  0.89531200  0.30204600  1
  H  908  1  0.33905000  0.87622700  0.32595700  1
  H  909  1  0.26999800  0.84914200  0.30424900  1
  H  910  1  0.28894300  0.82993700  0.32767700  1
  H  911  1  0.29445700  0.86729400  0.35850400  1
  H  912  1  0.28449700  0.85927700  0.39140900  1
  H  913  1  0.33077500  0.81614700  0.37566000  1
  H  914  1  0.35934600  0.79186900  0.37747000  1
  H  915  1  0.34829500  0.83244700  0.30870200  1
  H  916  1  0.37824800  0.80446400  0.31016400  1
  H  917  1  0.42428700  0.79853900  0.34392900  1
  H  918  1  0.45258800  0.78614700  0.32420100  1
  H  919  1  0.38125600  0.75404500  0.31957800  1
  H  920  1  0.40972000  0.74170800  0.29964800  1
  H  921  1  0.40896000  0.75202800  0.36290700  1
  H  922  1  0.39909200  0.74398200  0.39587400  1
  H  923  1  0.31002700  0.80156100  0.44224900  1
  H  924  1  0.33942300  0.77293800  0.44351200  1
  H  925  1  0.34871200  0.72922900  0.41164000  1
  H  926  1  0.35892800  0.70044400  0.43169200  1
  H  927  1  0.39336800  0.77045900  0.43796100  1
  H  928  1  0.40375400  0.74128800  0.45808600  1
  H  929  1  0.31411100  0.85996700  0.42704600  1
  H  930  1  0.29078100  0.87654700  0.44903800  1
  H  931  1  0.24464700  0.82725600  0.44106400  1
  H  932  1  0.26800100  0.81065300  0.41855300  1
  H  985  1  0.75822500  0.46083500  0.44410100  1
  H  986  1  0.73810500  0.47986700  0.42071200  1
  H  987  1  0.70633300  0.41725900  0.45039800  1
  H  988  1  0.68629000  0.43618600  0.42747500  1
  H  989  1  0.72161500  0.43400100  0.39372200  1
  H  990  1  0.71329200  0.42425500  0.36083000  1
  H  991  1  0.67697400  0.47691100  0.37442800  1
  H  992  1  0.65020000  0.50318900  0.37359400  1
  H  993  1  0.69420400  0.49455500  0.44122600  1
  H  994  1  0.66576200  0.52411500  0.44006900  1
  H  995  1  0.65484600  0.56804600  0.40534400  1
  H  996  1  0.64365000  0.59652500  0.42539600  1
  H  997  1  0.61486700  0.52430200  0.43403400  1
  H  998  1  0.60369000  0.55298600  0.45425500  1
  H  999  1  0.60780700  0.54999200  0.38961500  1
  H  1000  1  0.59916500  0.53990000  0.35678000  1
  H  1001  1  0.66151400  0.45598300  0.30797400  1
  H  1002  1  0.63212600  0.48460100  0.30715900  1
  H  1003  1  0.58656000  0.49036800  0.34000300  1
  H  1004  1  0.55741200  0.49987000  0.32007900  1
  H  1005  1  0.62634200  0.53639900  0.31380900  1
  H  1006  1  0.59682700  0.54601700  0.29379300  1
  H  1007  1  0.72038100  0.45636000  0.32705100  1
  H  1008  1  0.73744600  0.43356100  0.30494300  1
  H  1009  1  0.68411300  0.39112500  0.30644100  1
  H  1010  1  0.66709500  0.41380800  0.32909900  1
  H  1063  1  0.74172300  0.32298400  0.94414100  1
  H  1064  1  0.76182200  0.30394700  0.92074400  1
  H  1065  1  0.79362100  0.36656000  0.95039800  1
  H  1066  1  0.81364000  0.34763400  0.92746000  1
  H  1067  1  0.77829700  0.34980100  0.89372700  1
  H  1068  1  0.78663500  0.35956300  0.86084200  1
  H  1069  1  0.82296600  0.30692000  0.87444200  1
  H  1070  1  0.84968100  0.28059200  0.87359000  1
  H  1071  1  0.80575800  0.28929800  0.94125600  1
  H  1072  1  0.83416200  0.25970200  0.94008500  1
  H  1073  1  0.84503200  0.21568500  0.90528800  1
  H  1074  1  0.85635400  0.18715800  0.92524000  1
  H  1075  1  0.88497900  0.25942100  0.93401700  1
  H  1076  1  0.89627400  0.23069100  0.95414500  1
  H  1077  1  0.89202200  0.23373500  0.88959200  1
  H  1078  1  0.90067300  0.24382900  0.85676200  1
  H  1079  1  0.83841600  0.32783900  0.80798300  1
  H  1080  1  0.86776400  0.29917700  0.80715300  1
  H  1081  1  0.91329400  0.29340100  0.84003800  1
  H  1082  1  0.94247400  0.28393100  0.82013800  1
  H  1083  1  0.87357100  0.24737500  0.81377600  1
  H  1084  1  0.90311800  0.23779000  0.79378100  1
  H  1085  1  0.77955600  0.32747500  0.82707800  1
  H  1086  1  0.76245500  0.35031000  0.80501300  1
  H  1087  1  0.81579300  0.39274100  0.80649600  1
  H  1088  1  0.83284500  0.37002600  0.82911400  1
  H  1141  1  0.31916400  0.88331600  0.69420800  1
  H  1142  1  0.33806300  0.90355600  0.67081300  1
  H  1143  1  0.27543800  0.93505000  0.70066600  1
  H  1144  1  0.29422300  0.95521000  0.67772800  1
  H  1145  1  0.29203300  0.91947100  0.64419000  1
  H  1146  1  0.28182000  0.92749800  0.61135700  1
  H  1147  1  0.33437000  0.96426900  0.62427700  1
  H  1148  1  0.35989200  0.99174300  0.62319600  1
  H  1149  1  0.35210500  0.94871600  0.69137900  1
  H  1150  1  0.38114500  0.97771200  0.68983700  1
  H  1151  1  0.42474100  0.98644600  0.65585000  1
  H  1152  1  0.45330100  0.99892200  0.67526900  1
  H  1153  1  0.38160700  0.02984200  0.68147200  1
  H  1154  1  0.41034800  0.04229300  0.70107200  1
  H  1155  1  0.40759300  0.03369500  0.63806000  1
  H  1156  1  0.39759200  0.04142100  0.60505900  1
  H  1157  1  0.31271700  0.97879800  0.55781600  1
  H  1158  1  0.34140600  0.00807500  0.55641300  1
  H  1159  1  0.34800700  0.05421600  0.58801500  1
  H  1160  1  0.35815100  0.08269500  0.56761300  1
  H  1161  1  0.39381500  0.01311900  0.56302100  1
  H  1162  1  0.40407800  0.04196300  0.54251800  1
  H  1163  1  0.31303500  0.92032500  0.57733700  1
  H  1164  1  0.29001900  0.90343400  0.55529500  1
  H  1165  1  0.24802300  0.95712500  0.55690300  1
  H  1166  1  0.27090100  0.97394900  0.57950900  1
  H  1219  1  0.18072600  0.90043900  0.19418800  1
  H  1220  1  0.16185300  0.88015300  0.17080800  1
  H  1221  1  0.22444300  0.84871400  0.20075600  1
  H  1222  1  0.20568300  0.82851300  0.17783000  1
  H  1223  1  0.20793700  0.86418100  0.14425700  1
  H  1224  1  0.21812200  0.85619500  0.11141000  1
  H  1225  1  0.16553100  0.81947400  0.12430900  1
  H  1226  1  0.13986500  0.79212900  0.12317000  1
  H  1227  1  0.14775700  0.83503700  0.19139700  1
  H  1228  1  0.11866600  0.80609300  0.18983100  1
  H  1229  1  0.07508000  0.79725600  0.15581400  1
  H  1230  1  0.04652400  0.78475400  0.17522300  1
  H  1231  1  0.11826900  0.75397600  0.18151400  1
  H  1232  1  0.08953000  0.74149700  0.20110200  1
  H  1233  1  0.09235000  0.74999700  0.13809500  1
  H  1234  1  0.10233900  0.74229200  0.10508900  1
  H  1235  1  0.18713400  0.80501100  0.05782700  1
  H  1236  1  0.15840700  0.77577400  0.05640500  1
  H  1237  1  0.15191700  0.72964500  0.08798800  1
  H  1238  1  0.14180300  0.70114500  0.06759200  1
  H  1239  1  0.10597800  0.77064300  0.06304600  1
  H  1240  1  0.09574800  0.74178200  0.04255100  1
  H  1241  1  0.18684700  0.86342200  0.07736000  1
  H  1242  1  0.20980100  0.88027600  0.05525300  1
  H  1243  1  0.25177700  0.82657600  0.05681500  1
  H  1244  1  0.22896300  0.80978500  0.07948500  1
  H  1259  1  0.23702500  0.36832000  0.76217100  1
  H  1260  1  0.26268100  0.36702300  0.73890300  1
  H  1262  1  0.27731900  0.44098600  0.72595100  1
  H  1266  1  0.22906600  0.49470500  0.74327900  1
  H  1268  1  0.21069000  0.41447100  0.78146000  1
  H  1270  1  0.29484600  0.40684100  0.72109900  1
  H  1281  1  0.26275300  0.41549600  0.26212700  1
  H  1282  1  0.23711100  0.41674400  0.23883600  1
  H  1284  1  0.22253500  0.34276400  0.22594900  1
  H  1288  1  0.27091100  0.28912200  0.24332500  1
  H  1290  1  0.28922500  0.36945400  0.28136400  1
  H  1292  1  0.20489500  0.37706900  0.22118900  1
  H  1303  1  0.77255200  0.87898000  0.01212000  1
  H  1304  1  0.77386200  0.90454300  0.98873500  1
  H  1306  1  0.69992600  0.91931300  0.97587900  1
  H  1310  1  0.64623800  0.87109900  0.99324000  1
  H  1312  1  0.72659100  0.85259500  0.03134700  1
  H  1314  1  0.73420900  0.93672700  0.97094500  1
  H  1325  1  0.72728000  0.90474900  0.51204100  1
  H  1326  1  0.72602100  0.87917200  0.48865700  1
  H  1328  1  0.79996200  0.86440700  0.47590200  1
  H  1332  1  0.85358200  0.91276800  0.49325600  1
  H  1334  1  0.77326700  0.93107000  0.53138900  1
  H  1336  1  0.76533000  0.84681500  0.47117100  1
  H  1347  1  0.76287100  0.41531100  0.23769300  1
  H  1348  1  0.73728000  0.41659900  0.26103100  1
  H  1350  1  0.72262200  0.34263100  0.27393600  1
  H  1354  1  0.77084100  0.28893400  0.25652800  1
  H  1356  1  0.78915700  0.36919900  0.21835300  1
  H  1358  1  0.70511900  0.37677900  0.27883100  1
  H  1369  1  0.73715700  0.36842100  0.73773000  1
  H  1370  1  0.76273400  0.36718900  0.76109000  1
  H  1372  1  0.77731100  0.44117500  0.77393200  1
  H  1376  1  0.72896400  0.49479200  0.75647800  1
  H  1378  1  0.71073400  0.41443400  0.71843300  1
  H  1380  1  0.79493000  0.40687100  0.77874300  1
  H  1391  1  0.22759900  0.90479800  0.98772200  1
  H  1392  1  0.22627900  0.87921800  0.01109300  1
  H  1394  1  0.30020700  0.86441800  0.02395300  1
  H  1398  1  0.35388200  0.91266900  0.00663700  1
  H  1400  1  0.27355900  0.93118100  0.96851200  1
  H  1402  1  0.26586200  0.84702600  0.02889400  1
  H  1413  1  0.27237100  0.87902500  0.48781500  1
  H  1414  1  0.27363700  0.90462500  0.51118300  1
  H  1416  1  0.19970200  0.91942800  0.52392600  1
  H  1420  1  0.14608200  0.87109700  0.50663000  1
  H  1422  1  0.22638700  0.85270300  0.46848200  1
  H  1424  1  0.23442100  0.93700500  0.52865400  1
  H  1435  1  0.73553400  0.86791000  0.26192400  1
  H  1436  1  0.76396800  0.86578800  0.24096800  1
  H  1438  1  0.78147600  0.93917900  0.22869900  1
  H  1442  1  0.73209200  0.99379800  0.24023100  1
  H  1444  1  0.70854900  0.91535500  0.27887900  1
  H  1446  1  0.79880300  0.90476200  0.22598700  1
  H  1457  1  0.76424900  0.91584300  0.76202600  1
  H  1458  1  0.73583100  0.91797900  0.74105500  1
  H  1460  1  0.71848600  0.84461000  0.72858200  1
  H  1464  1  0.76779800  0.78987000  0.74024400  1
  H  1466  1  0.79127100  0.86835000  0.77892000  1
  H  1468  1  0.70105400  0.87907600  0.72600100  1
  H  1479  1  0.27475500  0.37760600  0.51201300  1
  H  1480  1  0.27680100  0.40572800  0.49072400  1
  H  1482  1  0.20337500  0.42300600  0.47842300  1
  H  1486  1  0.14878300  0.37383000  0.49048900  1
  H  1488  1  0.22743000  0.35069800  0.52919000  1
  H  1490  1  0.23766300  0.44037800  0.47556900  1
  H  1501  1  0.22502500  0.40604100  0.01197000  1
  H  1502  1  0.22306800  0.37792800  0.99066300  1
  H  1504  1  0.29653700  0.36078400  0.97844700  1
  H  1508  1  0.35101800  0.41007600  0.99057100  1
  H  1510  1  0.27228700  0.43304100  0.02918500  1
  H  1512  1  0.26215600  0.34331900  0.97561300  1
  H  1523  1  0.26436400  0.91606600  0.73790900  1
  H  1524  1  0.23594900  0.91818800  0.75888700  1
  H  1526  1  0.21844500  0.84480000  0.77116200  1
  H  1530  1  0.26778300  0.79015400  0.75961300  1
  H  1532  1  0.29137000  0.86863900  0.72096800  1
  H  1534  1  0.20110300  0.87919200  0.77386200  1
  H  1545  1  0.23565700  0.86773400  0.23782200  1
  H  1546  1  0.26405200  0.86561100  0.25881700  1
  H  1548  1  0.28137100  0.93898600  0.27128400  1
  H  1552  1  0.23209000  0.99373800  0.25957700  1
  H  1554  1  0.20859400  0.91519200  0.22093900  1
  H  1556  1  0.29882400  0.90455800  0.27386700  1
  H  1567  1  0.72531100  0.40622700  0.48789000  1
  H  1568  1  0.72325500  0.37793400  0.50900500  1
  H  1570  1  0.79667800  0.36061200  0.52128700  1
  H  1574  1  0.85124500  0.40994300  0.50942300  1
  H  1576  1  0.77264900  0.43325100  0.47085800  1
  H  1578  1  0.76232100  0.34320600  0.52404800  1
  H  1589  1  0.77461400  0.37775500  0.98781600  1
  H  1590  1  0.77663000  0.40603400  0.00895000  1
  H  1592  1  0.70320200  0.42311700  0.02137200  1
  H  1596  1  0.64859100  0.37377800  0.00936500  1
  H  1598  1  0.72727000  0.35064600  0.97081500  1
  H  1600  1  0.73767900  0.44067900  0.02397700  1
  H  1611  1  0.07154100  0.16237900  0.95919100  1
  H  1612  1  0.07115100  0.12479200  0.95363500  1
  H  1614  1  0.14219000  0.10227700  0.97079000  1
  H  1618  1  0.18538000  0.14570800  0.00847200  1
  H  1620  1  0.09601900  0.19653100  0.97054500  1
  H  1622  1  0.10368100  0.10301400  0.93786000  1
  H  1633  1  0.42831200  0.62140000  0.45922300  1
  H  1634  1  0.42869800  0.65901600  0.45365800  1
  H  1636  1  0.35763700  0.68150700  0.47076800  1
  H  1640  1  0.31462300  0.63795500  0.50857000  1
  H  1642  1  0.40360900  0.58725000  0.47072800  1
  H  1644  1  0.39617100  0.68082100  0.43785400  1
  H  1655  1  0.97943900  0.71293200  0.20985000  1
  H  1656  1  0.01776800  0.71128900  0.20963600  1
  H  1658  1  0.03907300  0.78104800  0.23001100  1
  H  1662  1  0.99097100  0.82747500  0.25981300  1
  H  1664  1  0.94459300  0.73775400  0.21925900  1
  H  1666  1  0.05511900  0.73362400  0.21857000  1
  H  1677  1  0.52038500  0.07083500  0.70977400  1
  H  1678  1  0.48205800  0.07244600  0.70959000  1
  H  1680  1  0.46081500  0.00271200  0.73003600  1
  H  1684  1  0.50896100  0.95632600  0.75982700  1
  H  1686  1  0.55530800  0.04591800  0.71928800  1
  H  1688  1  0.44477400  0.05022600  0.71847500  1
  H  1699  1  0.42872800  0.16126300  0.54022200  1
  H  1700  1  0.42872700  0.12369600  0.54590000  1
  H  1702  1  0.35741600  0.10187200  0.52900200  1
  H  1706  1  0.31441800  0.14575000  0.49143300  1
  H  1708  1  0.40396200  0.19575800  0.52844500  1
  H  1710  1  0.39586600  0.10238800  0.56184100  1
  H  1721  1  0.07117100  0.62248100  0.04021600  1
  H  1722  1  0.07118000  0.66007500  0.04592900  1
  H  1724  1  0.14249900  0.68189500  0.02904900  1
  H  1728  1  0.18530800  0.63793000  0.99131500  1
  H  1730  1  0.09578400  0.58806400  0.02851700  1
  H  1732  1  0.10404600  0.68141700  0.06188400  1
  H  1743  1  0.51911300  0.71270100  0.28992300  1
  H  1744  1  0.48076400  0.71156500  0.29029900  1
  H  1746  1  0.46027100  0.78159900  0.26995900  1
  H  1750  1  0.50891300  0.82738700  0.23999800  1
  H  1752  1  0.55428800  0.73730100  0.28022400  1
  H  1754  1  0.44374700  0.73412400  0.28167700  1
  H  1765  1  0.98085400  0.07109200  0.78992900  1
  H  1766  1  0.01919800  0.07219500  0.79026600  1
  H  1768  1  0.03962600  0.00218100  0.76988800  1
  H  1772  1  0.99094000  0.95639800  0.73998600  1
  H  1774  1  0.94559700  0.04636900  0.78013000  1
  H  1776  1  0.05614900  0.04975600  0.78171900  1
  H  1787  1  0.92839400  0.62153800  0.04074600  1
  H  1788  1  0.92871200  0.65911000  0.04635800  1
  H  1790  1  0.85767800  0.68155500  0.02917100  1
  H  1794  1  0.81459800  0.63805600  0.99141800  1
  H  1796  1  0.90336600  0.58726800  0.02889300  1
  H  1798  1  0.89610800  0.68072400  0.06218300  1
  H  1809  1  0.57155200  0.16232000  0.54074500  1
  H  1810  1  0.57124200  0.12473700  0.54641100  1
  H  1812  1  0.64226500  0.10226500  0.52926400  1
  H  1816  1  0.68514900  0.14578800  0.49128900  1
  H  1818  1  0.59618900  0.19647200  0.52914700  1
  H  1820  1  0.60375300  0.10297500  0.56224800  1
  H  1831  1  0.57112000  0.62251800  0.45952400  1
  H  1832  1  0.57118900  0.66008800  0.45367700  1
  H  1834  1  0.64251200  0.68189500  0.47055100  1
  H  1838  1  0.68534800  0.63812500  0.50839600  1
  H  1840  1  0.59547000  0.58815400  0.47112600  1
  H  1842  1  0.60419200  0.68134400  0.43766600  1
  H  1853  1  0.92881400  0.16116900  0.95953500  1
  H  1854  1  0.92873100  0.12359700  0.95377100  1
  H  1856  1  0.85742600  0.10183500  0.97061500  1
  H  1860  1  0.81455800  0.14568900  0.00835700  1
  H  1862  1  0.90381300  0.19567900  0.97155000  1
  H  1864  1  0.89582500  0.10237400  0.93773800  1
  H  1875  1  0.47614700  0.21558600  0.70832000  1
  H  1876  1  0.51344600  0.21492400  0.70143800  1
  H  1878  1  0.53776700  0.28495600  0.71951300  1
  H  1882  1  0.49695000  0.32743800  0.75961300  1
  H  1884  1  0.44316800  0.24069200  0.72339000  1
  H  1886  1  0.53579800  0.24733400  0.68601100  1
  H  1897  1  0.02377900  0.56820900  0.20831100  1
  H  1898  1  0.98645700  0.56884600  0.20139900  1
  H  1900  1  0.96216200  0.49881300  0.21950400  1
  H  1904  1  0.00308400  0.45639400  0.25963800  1
  H  1906  1  0.05665900  0.54360700  0.22311800  1
  H  1908  1  0.96408700  0.53644700  0.18596200  1
  H  1919  1  0.02299700  0.21538000  0.79139500  1
  H  1920  1  0.98571000  0.21507700  0.79847400  1
  H  1922  1  0.96193300  0.28531800  0.78051400  1
  H  1926  1  0.00306600  0.32745300  0.74024200  1
  H  1928  1  0.05603300  0.23964500  0.77663800  1
  H  1930  1  0.96361100  0.24779600  0.81398600  1
  H  1941  1  0.47689900  0.56831700  0.29146700  1
  H  1942  1  0.51419800  0.56868900  0.29846200  1
  H  1944  1  0.53809100  0.49854600  0.28040200  1
  H  1948  1  0.49695600  0.45636700  0.24018100  1
  H  1950  1  0.44382300  0.54327700  0.27618700  1
  H  1952  1  0.53629500  0.53599500  0.31395100  1
  C  1  1  0.21225400  0.34048200  0.88316000  1
  C  2  1  0.20779200  0.34544200  0.86513800  1
  C  3  1  0.19082800  0.33226200  0.85927600  1
  C  5  1  0.19808700  0.32419600  0.88872200  1
  C  6  1  0.19743200  0.31514400  0.90662000  1
  C  7  1  0.18410700  0.29765800  0.91202000  1
  C  9  1  0.15964800  0.27114400  0.91116700  1
  C  10  1  0.16848100  0.27163600  0.92878500  1
  C  11  1  0.18328600  0.28824900  0.92940400  1
  C  12  1  0.14327000  0.25696800  0.90486700  1
  C  13  1  0.13374400  0.25763500  0.88711900  1
  C  15  1  0.12486900  0.26724600  0.85823400  1
  C  16  1  0.11129800  0.25039000  0.86364200  1
  C  17  1  0.11677900  0.24445700  0.88128000  1
  C  18  1  0.12398000  0.27785800  0.84094000  1
  C  19  1  0.13808800  0.29461900  0.83527400  1
  C  21  1  0.16407200  0.31968100  0.83556500  1
  C  22  1  0.15416300  0.32029500  0.81837900  1
  C  23  1  0.13792400  0.30504900  0.81829600  1
  C  24  1  0.18128900  0.33301000  0.84156300  1
  C  25  1  0.19069800  0.34720200  0.82850600  1
  C  26  1  0.18164100  0.36764700  0.82455700  1
  C  27  1  0.19153400  0.38143000  0.81167200  1
  C  28  1  0.21075800  0.37495300  0.80291400  1
  C  29  1  0.21985500  0.35465900  0.80697600  1
  C  30  1  0.20992500  0.34086200  0.81965300  1
  C  31  1  0.10625700  0.27303300  0.82920100  1
  C  32  1  0.08616400  0.28301100  0.83259400  1
  C  33  1  0.06831100  0.27855000  0.82136800  1
  C  34  1  0.07015700  0.26421100  0.80643900  1
  C  35  1  0.09028100  0.25429300  0.80291700  1
  C  36  1  0.10821800  0.25869700  0.81421300  1
  C  37  1  0.13642000  0.24045000  0.91711800  1
  C  38  1  0.14510600  0.21950000  0.91529200  1
  C  39  1  0.13869800  0.20296100  0.92727300  1
  C  40  1  0.12365700  0.20703700  0.94136300  1
  C  41  1  0.11498900  0.22799900  0.94329700  1
  C  42  1  0.12133900  0.24459800  0.93124000  1
  C  43  1  0.20921700  0.32598800  0.92057800  1
  C  44  1  0.22859300  0.31755800  0.92788400  1
  C  45  1  0.20131300  0.34591800  0.92715100  1
  C  46  1  0.21255900  0.35723100  0.94077700  1
  C  47  1  0.23169700  0.34871700  0.94829000  1
  C  48  1  0.23968000  0.32876700  0.94179900  1
  C  79  1  0.28763800  0.44323900  0.38317400  1
  C  80  1  0.29208300  0.43829100  0.36514800  1
  C  81  1  0.30904200  0.45147400  0.35928200  1
  C  83  1  0.30178000  0.45955300  0.38872100  1
  C  84  1  0.30243200  0.46861200  0.40661700  1
  C  85  1  0.31571700  0.48613700  0.41199900  1
  C  87  1  0.34012500  0.51269500  0.41112700  1
  C  88  1  0.33129300  0.51220700  0.42874400  1
  C  89  1  0.31652400  0.49556300  0.42937600  1
  C  90  1  0.35650300  0.52686900  0.40482600  1
  C  91  1  0.36604000  0.52618700  0.38708300  1
  C  93  1  0.37490900  0.51657900  0.35819800  1
  C  94  1  0.38859300  0.53332000  0.36365700  1
  C  95  1  0.38309800  0.53927300  0.38128500  1
  C  96  1  0.37574200  0.50601700  0.34087800  1
  C  97  1  0.36165400  0.48923800  0.33522200  1
  C  99  1  0.33573700  0.46411100  0.33554100  1
  C  100  1  0.34560200  0.46354300  0.31833500  1
  C  101  1  0.36177500  0.47885900  0.31822000  1
  C  102  1  0.31856800  0.45073500  0.34156300  1
  C  103  1  0.30913300  0.43657100  0.32849700  1
  C  104  1  0.31819200  0.41614200  0.32449700  1
  C  105  1  0.30828400  0.40239100  0.31160000  1
  C  106  1  0.28902400  0.40886800  0.30289700  1
  C  107  1  0.27993200  0.42915200  0.30700000  1
  C  108  1  0.28987900  0.44292200  0.31968800  1
  C  109  1  0.39350800  0.51076800  0.32916600  1
  C  110  1  0.41352300  0.50061400  0.33252100  1
  C  111  1  0.43143800  0.50507500  0.32136600  1
  C  112  1  0.42971700  0.51954500  0.30651800  1
  C  113  1  0.40967100  0.52964300  0.30303800  1
  C  114  1  0.39167600  0.52525200  0.31427000  1
  C  115  1  0.36337300  0.54337500  0.41708200  1
  C  116  1  0.35474100  0.56434500  0.41523100  1
  C  117  1  0.36118600  0.58088400  0.42719500  1
  C  118  1  0.37621700  0.57679200  0.44128900  1
  C  119  1  0.38482000  0.55580800  0.44325800  1
  C  120  1  0.37843600  0.53920900  0.43121500  1
  C  121  1  0.29066800  0.45776400  0.42058500  1
  C  122  1  0.27128500  0.46617500  0.42789000  1
  C  123  1  0.29861100  0.43786000  0.42717700  1
  C  124  1  0.28740400  0.42656100  0.44083400  1
  C  125  1  0.26826900  0.43506700  0.44836200  1
  C  126  1  0.26023600  0.45498100  0.44183600  1
  C  157  1  0.80095600  0.85510500  0.13367800  1
  C  158  1  0.79566700  0.85067000  0.11572200  1
  C  159  1  0.80860200  0.83358300  0.10973400  1
  C  161  1  0.81716900  0.84076500  0.13907300  1
  C  162  1  0.82640800  0.83994900  0.15689200  1
  C  163  1  0.84380700  0.82646100  0.16218500  1
  C  165  1  0.87026000  0.80197900  0.16109000  1
  C  166  1  0.86975800  0.81051400  0.17881000  1
  C  167  1  0.85320700  0.82537900  0.17956400  1
  C  168  1  0.88447100  0.78575500  0.15458200  1
  C  169  1  0.88392700  0.77671700  0.13665800  1
  C  171  1  0.87485000  0.76894300  0.10744900  1
  C  172  1  0.89164700  0.75520200  0.11268600  1
  C  173  1  0.89722600  0.75998400  0.13054300  1
  C  174  1  0.86458000  0.76877400  0.09000400  1
  C  175  1  0.84723000  0.78235300  0.08473500  1
  C  177  1  0.82123400  0.80733600  0.08568000  1
  C  178  1  0.82086300  0.79792000  0.06828800  1
  C  179  1  0.83682100  0.78240000  0.06774400  1
  C  180  1  0.80759100  0.82413300  0.09200100  1
  C  181  1  0.79328400  0.83362400  0.07908600  1
  C  182  1  0.77294700  0.82441100  0.07501600  1
  C  183  1  0.75921900  0.83419100  0.06202900  1
  C  184  1  0.76566400  0.85343000  0.05326800  1
  C  185  1  0.78583300  0.86269800  0.05747500  1
  C  186  1  0.79957400  0.85288700  0.07025600  1
  C  187  1  0.87058300  0.75224000  0.07750400  1
  C  188  1  0.86041300  0.73193000  0.07885700  1
  C  189  1  0.86635600  0.71512100  0.06702200  1
  C  190  1  0.88281000  0.71812500  0.05381700  1
  C  191  1  0.89243300  0.73864400  0.05201900  1
  C  192  1  0.88648300  0.75558100  0.06389500  1
  C  193  1  0.90109100  0.77879200  0.16668200  1
  C  194  1  0.92200800  0.78754300  0.16481900  1
  C  195  1  0.93867400  0.78096600  0.17660000  1
  C  196  1  0.93478100  0.76565500  0.19051600  1
  C  197  1  0.91383100  0.75693200  0.19248000  1
  C  198  1  0.89710600  0.76344400  0.18062100  1
  C  199  1  0.81574200  0.85169700  0.17094400  1
  C  200  1  0.82428600  0.87105600  0.17818400  1
  C  201  1  0.79584000  0.84383000  0.17759300  1
  C  202  1  0.78464200  0.85512500  0.19124800  1
  C  203  1  0.79325800  0.87425800  0.19868600  1
  C  204  1  0.81318800  0.88219400  0.19212400  1
  C  235  1  0.69884200  0.92857900  0.63365600  1
  C  236  1  0.70412100  0.93299500  0.61569800  1
  C  237  1  0.69125200  0.95014100  0.60972700  1
  C  239  1  0.68271200  0.94300500  0.63907400  1
  C  240  1  0.67354800  0.94389600  0.65691900  1
  C  241  1  0.65614000  0.95737400  0.66220500  1
  C  243  1  0.62963900  0.98179900  0.66108900  1
  C  244  1  0.63017200  0.97330100  0.67882200  1
  C  245  1  0.64676100  0.95848100  0.67959100  1
  C  246  1  0.61539000  0.99797700  0.65456400  1
  C  247  1  0.61594300  0.00701400  0.63663900  1
  C  249  1  0.62501600  0.01477300  0.60742800  1
  C  250  1  0.60824100  0.02853800  0.61266900  1
  C  251  1  0.60264800  0.02374900  0.63052100  1
  C  252  1  0.63528300  0.01493000  0.58998100  1
  C  253  1  0.65265300  0.00137300  0.58472200  1
  C  255  1  0.67867300  0.97641700  0.58568200  1
  C  256  1  0.67905400  0.98584000  0.56829200  1
  C  257  1  0.66308300  0.00134600  0.56774100  1
  C  258  1  0.69229500  0.95960000  0.59199900  1
  C  259  1  0.70659400  0.95010000  0.57908200  1
  C  260  1  0.72691800  0.95932000  0.57498200  1
  C  261  1  0.74063300  0.94952800  0.56199300  1
  C  262  1  0.73420600  0.93025600  0.55327400  1
  C  263  1  0.71402900  0.92100800  0.55748700  1
  C  264  1  0.70029800  0.93082900  0.57026900  1
  C  265  1  0.62930700  0.03148600  0.57749100  1
  C  266  1  0.63951200  0.05177700  0.57885200  1
  C  267  1  0.63358700  0.06860700  0.56703200  1
  C  268  1  0.61713600  0.06563400  0.55381900  1
  C  269  1  0.60748100  0.04513200  0.55201000  1
  C  270  1  0.61339500  0.02818100  0.56388600  1
  C  271  1  0.59877500  0.00495000  0.66666667  1
  C  272  1  0.57785200  0.99621600  0.66479100  1
  C  273  1  0.56117900  0.00282000  0.67655500  1
  C  274  1  0.56507300  0.01813600  0.69046500  1
  C  275  1  0.58603100  0.02683400  0.69244500  1
  C  276  1  0.60276100  0.02030100  0.68059900  1
  C  277  1  0.68420800  0.93212300  0.67095600  1
  C  278  1  0.67561700  0.91279900  0.67822300  1
  C  279  1  0.70415300  0.93992800  0.67756200  1
  C  280  1  0.71534400  0.92861200  0.69120700  1
  C  281  1  0.70667000  0.90952700  0.69868500  1
  C  282  1  0.68670700  0.90164100  0.69215500  1
  C  313  1  0.28929300  0.34160600  0.61446800  1
  C  314  1  0.29375000  0.34673500  0.63245600  1
  C  315  1  0.30903100  0.33205600  0.63903600  1
  C  317  1  0.30178700  0.32370700  0.60963300  1
  C  318  1  0.30164300  0.31370500  0.59208800  1
  C  319  1  0.31482900  0.29599300  0.58699800  1
  C  321  1  0.33996000  0.27011200  0.58794400  1
  C  322  1  0.33019900  0.26944900  0.57068100  1
  C  323  1  0.31488100  0.28560100  0.57001800  1
  C  324  1  0.35699700  0.25666200  0.59415400  1
  C  325  1  0.36691300  0.25794800  0.61172200  1
  C  327  1  0.37551100  0.26768500  0.64063700  1
  C  328  1  0.38986400  0.25158300  0.63504000  1
  C  329  1  0.38454200  0.24555700  0.61738900  1
  C  330  1  0.37572000  0.27782500  0.65815000  1
  C  331  1  0.36091800  0.29394300  0.66386100  1
  C  333  1  0.33449100  0.31852900  0.66341500  1
  C  334  1  0.34336500  0.31834500  0.68101800  1
  C  335  1  0.35993200  0.30346000  0.68119600  1
  C  336  1  0.31767000  0.33216500  0.65709500  1
  C  337  1  0.30787700  0.34626000  0.67003500  1
  C  338  1  0.31807500  0.36547800  0.67590900  1
  C  339  1  0.30806000  0.37889300  0.68897600  1
  C  340  1  0.28751500  0.37344800  0.69594200  1
  C  341  1  0.27720000  0.35450700  0.68979600  1
  C  342  1  0.28731000  0.34095300  0.67702900  1
  C  343  1  0.39331100  0.27323000  0.67012100  1
  C  344  1  0.41322300  0.28376500  0.66718200  1
  C  345  1  0.43102600  0.27935200  0.67848600  1
  C  346  1  0.42930000  0.26455100  0.69309400  1
  C  347  1  0.40933900  0.25411900  0.69620600  1
  C  348  1  0.39147000  0.25844000  0.68480200  1
  C  349  1  0.36400700  0.24003800  0.58208500  1
  C  350  1  0.35588500  0.21893100  0.58440700  1
  C  351  1  0.36242900  0.20228100  0.57259800  1
  C  352  1  0.37706700  0.20639100  0.55821300  1
  C  353  1  0.38519200  0.22749700  0.55579900  1
  C  354  1  0.37868400  0.24422300  0.56766800  1
  C  355  1  0.28955600  0.32396400  0.57797700  1
  C  356  1  0.26857100  0.31710300  0.57302800  1
  C  357  1  0.29857100  0.34219000  0.56925200  1
  C  358  1  0.28680600  0.35341400  0.55589400  1
  C  359  1  0.26589100  0.34664500  0.55095600  1
  C  360  1  0.25681600  0.32831400  0.55947000  1
  C  391  1  0.21058900  0.44218600  0.11448000  1
  C  392  1  0.20614000  0.43705800  0.13246800  1
  C  393  1  0.19082800  0.45171000  0.13904300  1
  C  395  1  0.19807200  0.46007100  0.10964200  1
  C  396  1  0.19820200  0.47006400  0.09209500  1
  C  397  1  0.18502500  0.48778900  0.08701200  1
  C  399  1  0.15990200  0.51367700  0.08796600  1
  C  400  1  0.16964500  0.51432600  0.07069500  1
  C  401  1  0.18495300  0.49816600  0.07002500  1
  C  402  1  0.14286500  0.52712300  0.09417800  1
  C  403  1  0.13296500  0.52585200  0.11175400  1
  C  405  1  0.12438300  0.51612700  0.14067500  1
  C  406  1  0.11002500  0.53222600  0.13507700  1
  C  407  1  0.11533700  0.53824300  0.11742300  1
  C  408  1  0.12420100  0.50600800  0.15819600  1
  C  409  1  0.13895400  0.48983400  0.16388400  1
  C  411  1  0.16532600  0.46519000  0.16341000  1
  C  412  1  0.15644600  0.46536000  0.18101200  1
  C  413  1  0.13994000  0.48031100  0.18121600  1
  C  414  1  0.18215600  0.45156400  0.15709000  1
  C  415  1  0.19195600  0.43747800  0.17003200  1
  C  416  1  0.18177500  0.41824500  0.17589200  1
  C  417  1  0.19180300  0.40482300  0.18894800  1
  C  418  1  0.21236100  0.41025700  0.19589400  1
  C  419  1  0.22265000  0.42922400  0.18977500  1
  C  420  1  0.21252700  0.44278500  0.17702000  1
  C  421  1  0.10660400  0.51059000  0.17016500  1
  C  422  1  0.08671300  0.50000400  0.16726200  1
  C  423  1  0.06893000  0.50436500  0.17860500  1
  C  424  1  0.07065800  0.51915700  0.19322100  1
  C  425  1  0.09058900  0.52967100  0.19627100  1
  C  426  1  0.10844000  0.52539400  0.18483500  1
  C  427  1  0.13584800  0.54374100  0.08210500  1
  C  428  1  0.14397700  0.56484600  0.08441800  1
  C  429  1  0.13744900  0.58148900  0.07259500  1
  C  430  1  0.12281000  0.57737300  0.05821200  1
  C  431  1  0.11468000  0.55626700  0.05580400  1
  C  432  1  0.12117500  0.53955000  0.06768700  1
  C  433  1  0.21025800  0.45978800  0.07797500  1
  C  434  1  0.23123500  0.46663500  0.07299200  1
  C  435  1  0.20121400  0.44156100  0.06927200  1
  C  436  1  0.21294200  0.43032400  0.05589900  1
  C  437  1  0.23384600  0.43708900  0.05091600  1
  C  438  1  0.24295400  0.45540800  0.05942000  1
  C  469  1  0.70023600  0.85325500  0.36378000  1
  C  470  1  0.70568800  0.84884400  0.38170600  1
  C  471  1  0.69112200  0.83358800  0.38850000  1
  C  473  1  0.68228600  0.84070500  0.35918300  1
  C  474  1  0.67199600  0.84073100  0.34176300  1
  C  475  1  0.65435200  0.82738500  0.33681700  1
  C  477  1  0.62859800  0.80215700  0.33803900  1
  C  478  1  0.62787100  0.81165500  0.32067500  1
  C  479  1  0.64391300  0.82707400  0.31985800  1
  C  480  1  0.61516200  0.78523900  0.34447900  1
  C  481  1  0.61634400  0.77580500  0.36223400  1
  C  483  1  0.62551600  0.76836200  0.39148000  1
  C  484  1  0.60943000  0.75386300  0.38611600  1
  C  485  1  0.60379300  0.75844200  0.36823300  1
  C  486  1  0.63529700  0.76892900  0.40911800  1
  C  487  1  0.65201200  0.78326000  0.41441000  1
  C  489  1  0.67750800  0.80874400  0.41328200  1
  C  490  1  0.67710600  0.80044900  0.43108800  1
  C  491  1  0.66151600  0.78456700  0.43173700  1
  C  492  1  0.69144000  0.82512300  0.40661100  1
  C  493  1  0.70572900  0.83495700  0.41936000  1
  C  494  1  0.72481700  0.82458400  0.42530600  1
  C  495  1  0.73824200  0.83448200  0.43842500  1
  C  496  1  0.73290700  0.85505800  0.44540500  1
  C  497  1  0.71412400  0.86556200  0.43915200  1
  C  498  1  0.70056900  0.85558000  0.42631800  1
  C  499  1  0.62943800  0.75258600  0.42187100  1
  C  500  1  0.64004000  0.73245700  0.42102600  1
  C  501  1  0.63418400  0.71578900  0.43304500  1
  C  502  1  0.61741800  0.71875300  0.44596700  1
  C  503  1  0.60736000  0.73911600  0.44728100  1
  C  504  1  0.61320800  0.75589700  0.43520500  1
  C  505  1  0.59838900  0.77814600  0.33261000  1
  C  506  1  0.57735700  0.78643800  0.33498300  1
  C  507  1  0.56054800  0.77981000  0.32337600  1
  C  508  1  0.56440500  0.76487900  0.30916100  1
  C  509  1  0.58545500  0.75658100  0.30671400  1
  C  510  1  0.60233900  0.76317400  0.31837600  1
  C  511  1  0.68199600  0.85281900  0.32754600  1
  C  512  1  0.67508300  0.87384800  0.32278900  1
  C  513  1  0.70009400  0.84382900  0.31862100  1
  C  514  1  0.71118400  0.85569900  0.30525900  1
  C  515  1  0.70437200  0.87666800  0.30052700  1
  C  516  1  0.68615500  0.88570800  0.30922200  1
  C  547  1  0.79956300  0.93068200  0.86370800  1
  C  548  1  0.79412300  0.93507200  0.88164100  1
  C  549  1  0.80871900  0.95028800  0.88845000  1
  C  551  1  0.81754200  0.94320000  0.85912500  1
  C  552  1  0.82785400  0.94315400  0.84171200  1
  C  553  1  0.84554200  0.95645500  0.83679600  1
  C  555  1  0.87133800  0.98163700  0.83803800  1
  C  556  1  0.87210300  0.97210500  0.82068900  1
  C  557  1  0.85603200  0.95671900  0.81985700  1
  C  558  1  0.88478900  0.99853900  0.84448700  1
  C  559  1  0.88355400  0.00801600  0.86222200  1
  C  561  1  0.87435700  0.01547100  0.89145900  1
  C  562  1  0.89039200  0.03001900  0.88607800  1
  C  563  1  0.89604600  0.02543000  0.86820100  1
  C  564  1  0.86460700  0.01486700  0.90910800  1
  C  565  1  0.84789500  0.00053100  0.91439700  1
  C  567  1  0.82238600  0.97506000  0.91325800  1
  C  568  1  0.82282200  0.98331500  0.93107800  1
  C  569  1  0.83841400  0.99919400  0.93173100  1
  C  570  1  0.80844000  0.95869700  0.90657900  1
  C  571  1  0.79415200  0.94885400  0.91932700  1
  C  572  1  0.77509200  0.95924200  0.92531500  1
  C  573  1  0.76169600  0.94935000  0.93846300  1
  C  574  1  0.76701500  0.92875800  0.94541500  1
  C  575  1  0.78579900  0.91826200  0.93914700  1
  C  576  1  0.79931800  0.92822900  0.92627500  1
  C  577  1  0.87047000  0.03120200  0.92187000  1
  C  578  1  0.85986400  0.05133200  0.92105300  1
  C  579  1  0.86573000  0.06798400  0.93308500  1
  C  580  1  0.88248300  0.06498600  0.94601400  1
  C  581  1  0.89254100  0.04462200  0.94730400  1
  C  582  1  0.88670600  0.02786900  0.93519500  1
  C  583  1  0.90155900  0.00564700  0.83261900  1
  C  584  1  0.92260700  0.99741000  0.83502500  1
  C  585  1  0.93941800  0.00406200  0.82342800  1
  C  586  1  0.93554600  0.01896200  0.80919300  1
  C  587  1  0.91448000  0.02720300  0.80671200  1
  C  588  1  0.89759400  0.02058900  0.81836400  1
  C  589  1  0.81788400  0.93103400  0.82750000  1
  C  590  1  0.82480100  0.90999300  0.82278800  1
  C  591  1  0.79980300  0.94000400  0.81853600  1
  C  592  1  0.78874100  0.92810900  0.80517500  1
  C  593  1  0.79555600  0.90712500  0.80048900  1
  C  594  1  0.81375100  0.89809900  0.80922900  1
  C  625  1  0.78739700  0.44324500  0.11640000  1
  C  626  1  0.79186200  0.43814900  0.13439100  1
  C  627  1  0.80894200  0.45116300  0.14027000  1
  C  629  1  0.80171900  0.45940800  0.11086200  1
  C  630  1  0.80246600  0.46848400  0.09297800  1
  C  631  1  0.81587800  0.48589800  0.08757100  1
  C  633  1  0.84031500  0.51240600  0.08846200  1
  C  634  1  0.83168600  0.51178500  0.07077800  1
  C  635  1  0.81686600  0.49519000  0.07014700  1
  C  636  1  0.85654800  0.52668900  0.09484200  1
  C  637  1  0.86567500  0.52627800  0.11273800  1
  C  639  1  0.87373600  0.51729200  0.14191900  1
  C  640  1  0.88731900  0.53417700  0.13658500  1
  C  641  1  0.88237000  0.53969100  0.11874500  1
  C  642  1  0.87417200  0.50699800  0.15935900  1
  C  643  1  0.86055000  0.48974700  0.16479400  1
  C  645  1  0.83536400  0.46391500  0.16414600  1
  C  646  1  0.84499800  0.46354300  0.18145100  1
  C  647  1  0.86068900  0.47935100  0.18178900  1
  C  648  1  0.81842600  0.45033100  0.15800000  1
  C  649  1  0.80896000  0.43613700  0.17102600  1
  C  650  1  0.81799700  0.41570000  0.17503200  1
  C  651  1  0.80810900  0.40199200  0.18798000  1
  C  652  1  0.78891900  0.40854100  0.19675700  1
  C  653  1  0.77984100  0.42882500  0.19263300  1
  C  654  1  0.78976300  0.44254800  0.17989500  1
  C  655  1  0.89111100  0.51276900  0.17155800  1
  C  656  1  0.91136600  0.50264000  0.16955500  1
  C  657  1  0.92859900  0.50837600  0.18101700  1
  C  658  1  0.92610200  0.52458200  0.19452100  1
  C  659  1  0.90564800  0.53415500  0.19696400  1
  C  660  1  0.88828600  0.52843300  0.18545000  1
  C  661  1  0.86342400  0.54322800  0.08262300  1
  C  662  1  0.85466500  0.56415100  0.08443900  1
  C  663  1  0.86117500  0.58075600  0.07257100  1
  C  664  1  0.87636300  0.57677000  0.05858100  1
  C  665  1  0.88510200  0.55583700  0.05664800  1
  C  666  1  0.87866900  0.53917400  0.06861000  1
  C  667  1  0.79064700  0.45771900  0.07901800  1
  C  668  1  0.77131600  0.46626200  0.07172600  1
  C  669  1  0.79846400  0.43775500  0.07245300  1
  C  670  1  0.78715300  0.42649600  0.05884300  1
  C  671  1  0.76805100  0.43511200  0.05135000  1
  C  672  1  0.76016500  0.45510600  0.05782300  1
  C  703  1  0.71250200  0.34053900  0.61643200  1
  C  704  1  0.70803200  0.34563600  0.63442300  1
  C  705  1  0.69094400  0.33262700  0.64029600  1
  C  707  1  0.69820500  0.32435400  0.61090000  1
  C  708  1  0.69746200  0.31527700  0.59301600  1
  C  709  1  0.68406500  0.29784900  0.58761800  1
  C  711  1  0.65962600  0.27133900  0.58851000  1
  C  712  1  0.66825800  0.27195700  0.57082700  1
  C  713  1  0.68307900  0.28855400  0.57019500  1
  C  714  1  0.64338000  0.25706900  0.59488300  1
  C  715  1  0.63424800  0.25747800  0.61277900  1
  C  717  1  0.62617600  0.26646800  0.64195700  1
  C  718  1  0.61256300  0.24961600  0.63660700  1
  C  719  1  0.61753400  0.24408300  0.61877500  1
  C  720  1  0.62575300  0.27674700  0.65940200  1
  C  721  1  0.63935700  0.29401200  0.66483200  1
  C  723  1  0.66452900  0.31986300  0.66417700  1
  C  724  1  0.65489000  0.32023700  0.68147900  1
  C  725  1  0.63922300  0.30440500  0.68182800  1
  C  726  1  0.68143900  0.33347400  0.65801700  1
  C  727  1  0.69093600  0.34762900  0.67105900  1
  C  728  1  0.68192800  0.36807000  0.67509500  1
  C  729  1  0.69184300  0.38174200  0.68805400  1
  C  730  1  0.71105000  0.37516800  0.69679400  1
  C  731  1  0.72008900  0.35487300  0.69265000  1
  C  732  1  0.71013700  0.34118400  0.67990400  1
  C  733  1  0.60880700  0.27098300  0.67160000  1
  C  734  1  0.58855000  0.28110500  0.66959200  1
  C  735  1  0.57131300  0.27536500  0.68105100  1
  C  736  1  0.57381100  0.25916000  0.69455700  1
  C  737  1  0.59427100  0.24960200  0.69700800  1
  C  738  1  0.61163500  0.25532400  0.68549600  1
  C  739  1  0.63648800  0.24054500  0.58265600  1
  C  740  1  0.64526200  0.21962500  0.58444100  1
  C  741  1  0.63878400  0.20304800  0.57253200  1
  C  742  1  0.62359600  0.20705600  0.55854600  1
  C  743  1  0.61484100  0.22798700  0.55664600  1
  C  744  1  0.62124800  0.24462400  0.56864400  1
  C  745  1  0.70926700  0.32605100  0.57904800  1
  C  746  1  0.72860300  0.31753100  0.57174900  1
  C  747  1  0.70140900  0.34599300  0.57246600  1
  C  748  1  0.71267800  0.35724100  0.55882300  1
  C  749  1  0.73177600  0.34863800  0.55131200  1
  C  750  1  0.73971200  0.32867800  0.55781600  1
  C  781  1  0.19855300  0.92840000  0.86623600  1
  C  782  1  0.20390300  0.93272100  0.88420200  1
  C  783  1  0.19124000  0.94999600  0.89021300  1
  C  785  1  0.18258400  0.94301000  0.86084800  1
  C  786  1  0.17349200  0.94412400  0.84298700  1
  C  787  1  0.15635300  0.95795100  0.83771000  1
  C  789  1  0.13024200  0.98278800  0.83892000  1
  C  790  1  0.13094400  0.97471300  0.82105000  1
  C  791  1  0.14725900  0.95958500  0.82024400  1
  C  792  1  0.11609700  0.99898500  0.84556700  1
  C  793  1  0.11636900  0.00757000  0.86364500  1
  C  795  1  0.12526900  0.01486100  0.89297100  1
  C  796  1  0.10818100  0.02835100  0.88796600  1
  C  797  1  0.10271900  0.02387400  0.87003100  1
  C  798  1  0.13564800  0.01497000  0.91036100  1
  C  799  1  0.15306100  0.00140400  0.91548000  1
  C  801  1  0.17896900  0.97635000  0.91433700  1
  C  802  1  0.17958500  0.98581500  0.93170700  1
  C  803  1  0.16367500  0.00137900  0.93237500  1
  C  804  1  0.19245000  0.95947000  0.90792600  1
  C  805  1  0.20682900  0.94994200  0.92075400  1
  C  806  1  0.22719400  0.95914200  0.92473600  1
  C  807  1  0.24095200  0.94940100  0.93771900  1
  C  808  1  0.23450300  0.93021200  0.94655200  1
  C  809  1  0.21431000  0.92094700  0.94242600  1
  C  810  1  0.20053300  0.93073000  0.92965900  1
  C  811  1  0.12968000  0.03146100  0.92291000  1
  C  812  1  0.13959700  0.05187400  0.92136000  1
  C  813  1  0.13351100  0.06873800  0.93308100  1
  C  814  1  0.11714500  0.06569000  0.94635800  1
  C  815  1  0.10778900  0.04507300  0.94836100  1
  C  816  1  0.11388000  0.02807800  0.93659600  1
  C  817  1  0.09970100  0.00637100  0.83346600  1
  C  818  1  0.07890000  0.99719000  0.83459000  1
  C  819  1  0.06232800  0.00447600  0.82303000  1
  C  820  1  0.06622100  0.02095800  0.81011800  1
  C  821  1  0.08704600  0.03012200  0.80888500  1
  C  822  1  0.10367800  0.02290300  0.82054000  1
  C  823  1  0.18411700  0.93238400  0.82890100  1
  C  824  1  0.17539100  0.91320600  0.82147100  1
  C  825  1  0.20417900  0.94004600  0.82242200  1
  C  826  1  0.21534900  0.92873200  0.80876100  1
  C  827  1  0.20657000  0.90976700  0.80115300  1
  C  828  1  0.18647900  0.90203700  0.80753700  1
  C  859  1  0.30147400  0.85549400  0.36627000  1
  C  860  1  0.29612100  0.85118400  0.38423400  1
  C  861  1  0.30870700  0.83383800  0.39022300  1
  C  863  1  0.31733900  0.84078100  0.36085700  1
  C  864  1  0.32634500  0.83958300  0.34296700  1
  C  865  1  0.34348300  0.82575600  0.33769600  1
  C  867  1  0.36964100  0.80097400  0.33892600  1
  C  868  1  0.36889800  0.80900100  0.32104200  1
  C  869  1  0.35254800  0.82408900  0.32022100  1
  C  870  1  0.38382500  0.78482400  0.34559200  1
  C  871  1  0.38355100  0.77625200  0.36367900  1
  C  873  1  0.37466900  0.76899600  0.39300800  1
  C  874  1  0.39174600  0.75548300  0.38800400  1
  C  875  1  0.39721300  0.75995600  0.37007000  1
  C  876  1  0.36430100  0.76890400  0.41040400  1
  C  877  1  0.34684500  0.78242600  0.41550100  1
  C  879  1  0.32090200  0.80744200  0.41433500  1
  C  880  1  0.32026600  0.79796400  0.43170000  1
  C  881  1  0.33619700  0.78242200  0.43238000  1
  C  882  1  0.30744500  0.82434400  0.40792800  1
  C  883  1  0.29307800  0.83388400  0.42075900  1
  C  884  1  0.27272000  0.82468600  0.42477000  1
  C  885  1  0.25898200  0.83443900  0.43775800  1
  C  886  1  0.26542300  0.85365700  0.44655400  1
  C  887  1  0.28562800  0.86289400  0.44242200  1
  C  888  1  0.29938700  0.85310000  0.42965000  1
  C  889  1  0.37023600  0.75238900  0.42294300  1
  C  890  1  0.36028100  0.73199400  0.42138800  1
  C  891  1  0.36634400  0.71511200  0.43310100  1
  C  892  1  0.38270600  0.71813200  0.44638600  1
  C  893  1  0.39209800  0.73873200  0.44839300  1
  C  894  1  0.38604800  0.75573700  0.43662400  1
  C  895  1  0.40021600  0.77742700  0.33349100  1
  C  896  1  0.42102400  0.78659200  0.33462900  1
  C  897  1  0.43759900  0.77929000  0.32308100  1
  C  898  1  0.43370200  0.76281600  0.31016400  1
  C  899  1  0.41287000  0.75367300  0.30891300  1
  C  900  1  0.39623400  0.76090300  0.32055800  1
  C  901  1  0.31572800  0.85135300  0.32889500  1
  C  902  1  0.32450900  0.87048900  0.32143400  1
  C  903  1  0.29561800  0.84376600  0.32246800  1
  C  904  1  0.28445500  0.85510600  0.30881700  1
  C  905  1  0.29329900  0.87401600  0.30116300  1
  C  906  1  0.31343000  0.88168300  0.30751000  1
  C  937  1  0.71082400  0.44210200  0.38566100  1
  C  938  1  0.70636500  0.43685200  0.36769900  1
  C  939  1  0.69098900  0.45140900  0.36108500  1
  C  941  1  0.69819800  0.45992600  0.39046100  1
  C  942  1  0.69824500  0.46997600  0.40798500  1
  C  943  1  0.68496400  0.48761600  0.41307600  1
  C  945  1  0.65980200  0.51345100  0.41210000  1
  C  946  1  0.66939300  0.51401600  0.42943000  1
  C  947  1  0.68475900  0.49791400  0.43009900  1
  C  948  1  0.64287000  0.52697400  0.40581300  1
  C  949  1  0.63333000  0.52594300  0.38809000  1
  C  951  1  0.62554000  0.51685000  0.35888300  1
  C  952  1  0.61117100  0.53299000  0.36438300  1
  C  953  1  0.61596600  0.53858300  0.38223600  1
  C  954  1  0.62581000  0.50704200  0.34124300  1
  C  955  1  0.64015600  0.49041800  0.33576000  1
  C  957  1  0.66583600  0.46507900  0.33655000  1
  C  958  1  0.65723500  0.46545100  0.31884900  1
  C  959  1  0.64118900  0.48089200  0.31842900  1
  C  960  1  0.68239100  0.45121600  0.34301400  1
  C  961  1  0.69222100  0.43709400  0.33011500  1
  C  962  1  0.68203500  0.41787900  0.32422300  1
  C  963  1  0.69203500  0.40451700  0.31110300  1
  C  964  1  0.71254000  0.41003000  0.30408300  1
  C  965  1  0.72283900  0.42896900  0.31024800  1
  C  966  1  0.71274800  0.44246400  0.32307300  1
  C  967  1  0.60904300  0.51266200  0.32879900  1
  C  968  1  0.58894800  0.50209900  0.33031600  1
  C  969  1  0.57184100  0.50774300  0.31867800  1
  C  970  1  0.57430800  0.52426000  0.30544400  1
  C  971  1  0.59462600  0.53426400  0.30345800  1
  C  972  1  0.61184800  0.52864800  0.31516800  1
  C  973  1  0.63582000  0.54360800  0.41785500  1
  C  974  1  0.64407300  0.56467600  0.41559900  1
  C  975  1  0.63754300  0.58133900  0.42739500  1
  C  976  1  0.62279000  0.57728100  0.44170300  1
  C  977  1  0.61450900  0.55622100  0.44403900  1
  C  978  1  0.62100200  0.53948000  0.43217800  1
  C  979  1  0.71036400  0.45981100  0.42210200  1
  C  980  1  0.73134000  0.46674800  0.42699500  1
  C  981  1  0.70139700  0.44159300  0.43087000  1
  C  982  1  0.71321700  0.43042700  0.44421900  1
  C  983  1  0.73413300  0.43726000  0.44909100  1
  C  984  1  0.74315400  0.45559400  0.44054600  1
  C  1015  1  0.78908200  0.34169500  0.88566400  1
  C  1016  1  0.79353900  0.34694500  0.86770300  1
  C  1017  1  0.80892800  0.33240100  0.86109200  1
  C  1019  1  0.80171100  0.32387600  0.89046500  1
  C  1020  1  0.80167100  0.31383200  0.90799100  1
  C  1021  1  0.81493200  0.29617400  0.91307800  1
  C  1023  1  0.84006200  0.27031000  0.91209100  1
  C  1024  1  0.83049700  0.26976800  0.92943200  1
  C  1025  1  0.81515500  0.28589300  0.93010900  1
  C  1026  1  0.85696800  0.25676200  0.90579500  1
  C  1027  1  0.86650300  0.25778700  0.88806900  1
  C  1029  1  0.87430600  0.26689100  0.85886500  1
  C  1030  1  0.88865400  0.25072800  0.86435800  1
  C  1031  1  0.88385100  0.24513000  0.88221000  1
  C  1032  1  0.87404800  0.27670600  0.84122800  1
  C  1033  1  0.85973800  0.29336600  0.83575600  1
  C  1035  1  0.83410100  0.31874800  0.83656000  1
  C  1036  1  0.84271500  0.31838900  0.81886300  1
  C  1037  1  0.85872000  0.30290700  0.81843000  1
  C  1038  1  0.81755800  0.33262100  0.84303200  1
  C  1039  1  0.80772200  0.34673600  0.83012900  1
  C  1040  1  0.81790000  0.36595700  0.82424300  1
  C  1041  1  0.80789300  0.37932300  0.81113100  1
  C  1042  1  0.78737100  0.37382900  0.80413400  1
  C  1043  1  0.77709000  0.35487200  0.81028000  1
  C  1044  1  0.78718700  0.34137200  0.82309700  1
  C  1045  1  0.89083700  0.27110700  0.82879700  1
  C  1046  1  0.91092300  0.28168100  0.83033900  1
  C  1047  1  0.92805000  0.27605300  0.81871400  1
  C  1048  1  0.92561300  0.25954300  0.80547200  1
  C  1049  1  0.90530100  0.24953500  0.80345900  1
  C  1050  1  0.88806100  0.25513000  0.81515400  1
  C  1051  1  0.86401800  0.24012700  0.91783500  1
  C  1052  1  0.85580100  0.21905100  0.91554700  1
  C  1053  1  0.86240600  0.20235900  0.92728400  1
  C  1054  1  0.87718600  0.20640000  0.94157400  1
  C  1055  1  0.88540700  0.22747600  0.94396200  1
  C  1056  1  0.87885000  0.24424300  0.93215000  1
  C  1057  1  0.78956300  0.32400500  0.92211300  1
  C  1058  1  0.76859300  0.31706600  0.92702300  1
  C  1059  1  0.79854000  0.34222400  0.93087100  1
  C  1060  1  0.78673200  0.35338900  0.94422900  1
  C  1061  1  0.76582600  0.34654900  0.94912300  1
  C  1062  1  0.75679200  0.32822300  0.94057900  1
  C  1093  1  0.29999200  0.93022200  0.63599200  1
  C  1094  1  0.29448100  0.93452600  0.61806100  1
  C  1095  1  0.30883100  0.94997200  0.61124200  1
  C  1097  1  0.31775000  0.94304400  0.64058200  1
  C  1098  1  0.32791200  0.94332300  0.65805800  1
  C  1099  1  0.34528700  0.95702200  0.66300200  1
  C  1101  1  0.37068100  0.98261100  0.66167500  1
  C  1102  1  0.37122400  0.97356300  0.67921400  1
  C  1103  1  0.35543100  0.95788400  0.68007900  1
  C  1104  1  0.38403800  0.99951000  0.65508800  1
  C  1105  1  0.38311900  0.00852400  0.63717100  1
  C  1107  1  0.37412700  0.01549400  0.60781500  1
  C  1108  1  0.39051300  0.02976900  0.61294500  1
  C  1109  1  0.39603000  0.02548900  0.63090100  1
  C  1110  1  0.36425200  0.01484800  0.59022200  1
  C  1111  1  0.34749000  0.00051000  0.58506600  1
  C  1113  1  0.32210300  0.97493300  0.58638000  1
  C  1114  1  0.32227000  0.98327000  0.56858100  1
  C  1115  1  0.33779600  0.99920700  0.56782000  1
  C  1116  1  0.30832900  0.95847000  0.59314400  1
  C  1117  1  0.29396500  0.94861200  0.58047400  1
  C  1118  1  0.27481000  0.95895500  0.57465000  1
  C  1119  1  0.26134900  0.94908200  0.56154400  1
  C  1120  1  0.26671700  0.92855800  0.55447700  1
  C  1121  1  0.28555700  0.91807300  0.56062300  1
  C  1122  1  0.29915800  0.92804000  0.57342900  1
  C  1123  1  0.37009100  0.03113100  0.57740800  1
  C  1124  1  0.35977200  0.05139300  0.57844900  1
  C  1125  1  0.36577200  0.06809500  0.56651900  1
  C  1126  1  0.38242200  0.06503600  0.55350400  1
  C  1127  1  0.39218800  0.04454900  0.55199200  1
  C  1128  1  0.38619600  0.02773000  0.56398200  1
  C  1129  1  0.40060500  0.00700200  0.66696000  1
  C  1130  1  0.42152400  0.99820800  0.66533100  1
  C  1131  1  0.43825100  0.00556700  0.67669000  1
  C  1132  1  0.43440100  0.02176200  0.68986700  1
  C  1133  1  0.41347200  0.03057400  0.69157400  1
  C  1134  1  0.39666900  0.02326100  0.68013900  1
  C  1135  1  0.31795200  0.93125100  0.67231600  1
  C  1136  1  0.32497200  0.91028500  0.67716500  1
  C  1137  1  0.29972800  0.94013800  0.68113100  1
  C  1138  1  0.28863600  0.92824400  0.69447900  1
  C  1139  1  0.29555100  0.90733400  0.69930200  1
  C  1140  1  0.31388900  0.89839400  0.69070900  1
  C  1171  1  0.19995900  0.85345300  0.13605100  1
  C  1172  1  0.20546300  0.84916300  0.11811500  1
  C  1173  1  0.19109300  0.83374300  0.11128600  1
  C  1175  1  0.18219000  0.84064400  0.14063500  1
  C  1176  1  0.17202500  0.84036100  0.15811100  1
  C  1177  1  0.15461000  0.82669900  0.16303300  1
  C  1179  1  0.12917700  0.80115300  0.16168600  1
  C  1180  1  0.12861400  0.81021800  0.17921900  1
  C  1181  1  0.14443500  0.82586800  0.18009600  1
  C  1182  1  0.11580500  0.78426800  0.15509200  1
  C  1183  1  0.11675000  0.77523800  0.13718300  1
  C  1185  1  0.12573400  0.76828600  0.10782300  1
  C  1186  1  0.10939800  0.75396100  0.11296800  1
  C  1187  1  0.10388200  0.75823300  0.13092700  1
  C  1188  1  0.13557300  0.76897900  0.09021700  1
  C  1189  1  0.15235500  0.78329800  0.08507100  1
  C  1191  1  0.17777600  0.80884200  0.08640100  1
  C  1192  1  0.17758400  0.80053500  0.06859300  1
  C  1193  1  0.16203900  0.78461600  0.06782200  1
  C  1194  1  0.19156600  0.82528500  0.09317200  1
  C  1195  1  0.20593100  0.83514700  0.08050500  1
  C  1196  1  0.22506400  0.82479200  0.07464600  1
  C  1197  1  0.23849500  0.83465200  0.06151100  1
  C  1198  1  0.23314100  0.85518500  0.05445800  1
  C  1199  1  0.21429400  0.86566100  0.06061000  1
  C  1200  1  0.20073000  0.85571700  0.07345700  1
  C  1201  1  0.12976200  0.75268000  0.07740900  1
  C  1202  1  0.14013100  0.73244200  0.07843300  1
  C  1203  1  0.13414200  0.71572600  0.06651300  1
  C  1204  1  0.11747900  0.71875700  0.05350700  1
  C  1205  1  0.10767000  0.73922300  0.05200300  1
  C  1206  1  0.11362600  0.75604600  0.06400100  1
  C  1207  1  0.09924400  0.77676100  0.16696400  1
  C  1208  1  0.07831000  0.78551600  0.16531100  1
  C  1209  1  0.06158500  0.77814100  0.17666500  1
  C  1210  1  0.06545200  0.76197300  0.18986400  1
  C  1211  1  0.08639600  0.75320100  0.19159400  1
  C  1212  1  0.10319600  0.76053000  0.18016500  1
  C  1213  1  0.18196100  0.85245900  0.17236300  1
  C  1214  1  0.17493400  0.87343300  0.17718000  1
  C  1215  1  0.20017800  0.84359300  0.18120300  1
  C  1216  1  0.21124700  0.85550700  0.19455100  1
  C  1217  1  0.20432600  0.87642500  0.19934100  1
  C  1218  1  0.18600200  0.88535100  0.19071900  1
  C  1249  1  0.23564900  0.40263600  0.76487300  1
  C  1250  1  0.24414700  0.42188800  0.75715400  1
  C  1251  1  0.25948200  0.42133800  0.74250600  1
  C  1252  1  0.26635200  0.40104300  0.73538800  1
  C  1253  1  0.25795700  0.38199300  0.74335200  1
  C  1254  1  0.24272500  0.38278200  0.75738800  1
  C  1256  1  0.26041300  0.46009400  0.74271500  1
  C  1257  1  0.24520100  0.46069700  0.75710200  1
  C  1263  1  0.23777200  0.47985100  0.76472400  1
  C  1267  1  0.22094100  0.40240800  0.77940500  1
  C  1269  1  0.28104900  0.39870500  0.72109900  1
  C  1271  1  0.26416500  0.38118400  0.26484900  1
  C  1272  1  0.25569000  0.36191600  0.25714200  1
  C  1273  1  0.24036300  0.36243700  0.24248900  1
  C  1274  1  0.23348800  0.38271600  0.23534800  1
  C  1275  1  0.24185400  0.40178600  0.24330000  1
  C  1276  1  0.25707300  0.40102700  0.25734800  1
  C  1278  1  0.23945100  0.32368300  0.24273400  1
  C  1279  1  0.25465600  0.32310300  0.25712700  1
  C  1285  1  0.26208900  0.30393500  0.26473500  1
  C  1289  1  0.27886000  0.38143700  0.27938600  1
  C  1291  1  0.21880900  0.38500500  0.22104200  1
  C  1293  1  0.73824700  0.87770600  0.01485600  1
  C  1294  1  0.71899900  0.88618800  0.00712900  1
  C  1295  1  0.71955600  0.90147300  0.99244600  1
  C  1296  1  0.73984800  0.90826800  0.98529000  1
  C  1297  1  0.75890100  0.89987200  0.99324000  1
  C  1298  1  0.75810700  0.88470100  0.00733000  1
  C  1300  1  0.68081300  0.90245900  0.99268000  1
  C  1301  1  0.68020300  0.88726300  0.00708300  1
  C  1307  1  0.66105100  0.87983300  0.01469700  1
  C  1311  1  0.73845800  0.86311600  0.02946200  1
  C  1313  1  0.74218300  0.92283000  0.97091600  1
  C  1315  1  0.76158200  0.90605300  0.51480200  1
  C  1316  1  0.78084500  0.89757600  0.50710200  1
  C  1317  1  0.78031700  0.88228200  0.49242800  1
  C  1318  1  0.76004200  0.87548700  0.48524900  1
  C  1319  1  0.74096900  0.88386200  0.49317900  1
  C  1320  1  0.74173400  0.89904000  0.50726200  1
  C  1322  1  0.81905600  0.88129000  0.49270600  1
  C  1323  1  0.81964500  0.89650000  0.50709800  1
  C  1329  1  0.83881400  0.90394400  0.51468900  1
  C  1333  1  0.76133600  0.92064500  0.52940400  1
  C  1335  1  0.75777300  0.86093600  0.47086400  1
  C  1337  1  0.76421400  0.38100000  0.23496600  1
  C  1338  1  0.75573200  0.36174500  0.24269100  1
  C  1339  1  0.74043200  0.36228800  0.25736600  1
  C  1340  1  0.73359100  0.38257700  0.26451200  1
  C  1341  1  0.74198400  0.40163400  0.25655500  1
  C  1342  1  0.75717400  0.40085100  0.24248300  1
  C  1344  1  0.73948900  0.32353200  0.25713500  1
  C  1345  1  0.75467600  0.32293600  0.24272800  1
  C  1351  1  0.76209600  0.30378700  0.23509400  1
  C  1355  1  0.77886500  0.38123000  0.22039500  1
  C  1357  1  0.71892800  0.38490000  0.27882800  1
  C  1359  1  0.73576800  0.40272800  0.73498500  1
  C  1360  1  0.74422200  0.42200100  0.74269800  1
  C  1361  1  0.75951600  0.42149100  0.75737700  1
  C  1362  1  0.76636600  0.40121700  0.76454700  1
  C  1363  1  0.75800900  0.38214100  0.75660000  1
  C  1364  1  0.74283100  0.38289000  0.74251400  1
  C  1366  1  0.76043100  0.46024400  0.75711300  1
  C  1367  1  0.74525000  0.46081400  0.74269900  1
  C  1373  1  0.73782200  0.47997700  0.73508000  1
  C  1377  1  0.72112300  0.40247000  0.72041000  1
  C  1379  1  0.78101000  0.39894700  0.77888100  1
  C  1381  1  0.26190800  0.90606200  0.98499600  1
  C  1382  1  0.28115000  0.89757200  0.99271900  1
  C  1383  1  0.28058900  0.88228000  0.00739500  1
  C  1384  1  0.26029400  0.87549200  0.01454100  1
  C  1385  1  0.24123900  0.88388600  0.00659000  1
  C  1386  1  0.24204100  0.89906800  0.99251200  1
  C  1388  1  0.31932800  0.88128300  0.00716600  1
  C  1389  1  0.31994300  0.89649100  0.99277100  1
  C  1395  1  0.33909700  0.90393000  0.98516800  1
  C  1399  1  0.26171100  0.92063500  0.97038600  1
  C  1401  1  0.25795600  0.86096300  0.02893300  1
  C  1403  1  0.23806600  0.87773100  0.48505900  1
  C  1404  1  0.21880400  0.88621600  0.49275400  1
  C  1405  1  0.21933700  0.90152000  0.50741900  1
  C  1406  1  0.23961400  0.90831300  0.51458800  1
  C  1407  1  0.25869000  0.89993600  0.50666100  1
  C  1408  1  0.25791900  0.88474200  0.49259200  1
  C  1410  1  0.18060200  0.90252300  0.50714200  1
  C  1411  1  0.18001300  0.88728900  0.49276800  1
  C  1417  1  0.16087100  0.87982600  0.48515900  1
  C  1421  1  0.23830000  0.86315300  0.47045500  1
  C  1423  1  0.24188300  0.92283200  0.52898800  1
  C  1425  1  0.73442400  0.90228500  0.26405500  1
  C  1426  1  0.74416800  0.92127000  0.25691600  1
  C  1427  1  0.76128600  0.92018700  0.24381600  1
  C  1428  1  0.76869200  0.89966100  0.23769500  1
  C  1429  1  0.75897900  0.88086100  0.24492200  1
  C  1430  1  0.74206800  0.88216700  0.25750100  1
  C  1432  1  0.76279200  0.95890600  0.24340700  1
  C  1433  1  0.74580100  0.96006900  0.25624100  1
  C  1439  1  0.73768500  0.97952900  0.26268300  1
  C  1443  1  0.71813800  0.90265800  0.27732300  1
  C  1445  1  0.78485200  0.89701600  0.22472600  1
  C  1447  1  0.76542400  0.88145900  0.76408100  1
  C  1448  1  0.75570900  0.86248200  0.75690200  1
  C  1449  1  0.73861300  0.86357800  0.74377900  1
  C  1450  1  0.73118300  0.88411000  0.73769800  1
  C  1451  1  0.74085000  0.90290500  0.74497700  1
  C  1452  1  0.75774600  0.90158800  0.75756800  1
  C  1454  1  0.73713800  0.82486200  0.74329900  1
  C  1455  1  0.75407600  0.82367700  0.75618300  1
  C  1461  1  0.76211900  0.80418100  0.76264000  1
  C  1465  1  0.78171800  0.88107200  0.77734600  1
  C  1467  1  0.71503800  0.88675900  0.72472200  1
  C  1469  1  0.24039800  0.37648400  0.51420500  1
  C  1470  1  0.22139100  0.38609500  0.50697400  1
  C  1471  1  0.22242900  0.40304000  0.49369900  1
  C  1472  1  0.24292800  0.41038600  0.48745200  1
  C  1473  1  0.26174300  0.40077000  0.49474500  1
  C  1474  1  0.26048600  0.38406200  0.50753400  1
  C  1476  1  0.18370800  0.40450000  0.49334200  1
  C  1477  1  0.18258700  0.38766200  0.50632700  1
  C  1483  1  0.16314400  0.37960000  0.51286500  1
  C  1487  1  0.24008200  0.36033900  0.52761500  1
  C  1489  1  0.24552300  0.42648100  0.47439400  1
  C  1491  1  0.25937900  0.40723600  0.01419000  1
  C  1492  1  0.27841500  0.39766400  0.00697900  1
  C  1493  1  0.27742900  0.38072300  0.99369900  1
  C  1494  1  0.25695400  0.37334600  0.98742500  1
  C  1495  1  0.23810800  0.38291500  0.99470400  1
  C  1496  1  0.23931500  0.39961800  0.00750100  1
  C  1498  1  0.31615300  0.37932900  0.99338700  1
  C  1499  1  0.31722300  0.39616900  0.00637400  1
  C  1505  1  0.33663900  0.40426500  0.01293300  1
  C  1509  1  0.25964700  0.42338800  0.02759500  1
  C  1511  1  0.25442500  0.35727500  0.97433600  1
  C  1513  1  0.26547600  0.88169100  0.73577600  1
  C  1514  1  0.25573700  0.86270800  0.74292500  1
  C  1515  1  0.23862300  0.86379200  0.75603500  1
  C  1516  1  0.23121900  0.88431800  0.76216400  1
  C  1517  1  0.24093700  0.90311500  0.75493200  1
  C  1518  1  0.25783300  0.90180800  0.74233700  1
  C  1520  1  0.23711700  0.82507200  0.75644600  1
  C  1521  1  0.25410400  0.82390500  0.74360700  1
  C  1527  1  0.26221400  0.80444000  0.73716500  1
  C  1531  1  0.28177000  0.88133000  0.72250800  1
  C  1533  1  0.21503600  0.88696900  0.77512100  1
  C  1535  1  0.23447200  0.90211500  0.23575700  1
  C  1536  1  0.24417600  0.92109700  0.24294500  1
  C  1537  1  0.26126200  0.92000700  0.25607800  1
  C  1538  1  0.26869700  0.89948000  0.26217300  1
  C  1539  1  0.25903200  0.88068500  0.25489200  1
  C  1540  1  0.24215100  0.88199400  0.24228300  1
  C  1542  1  0.26272600  0.95872800  0.25655100  1
  C  1543  1  0.24579800  0.95990600  0.24365800  1
  C  1549  1  0.23776100  0.97939900  0.23719100  1
  C  1553  1  0.21817000  0.90248600  0.22249300  1
  C  1555  1  0.28486300  0.89683000  0.27513900  1
  C  1557  1  0.75967400  0.40736500  0.48572300  1
  C  1558  1  0.77867600  0.39770100  0.49289800  1
  C  1559  1  0.77763500  0.38066800  0.50608800  1
  C  1560  1  0.75713100  0.37327400  0.51227200  1
  C  1561  1  0.73831300  0.38292300  0.50501700  1
  C  1562  1  0.73957800  0.39973800  0.49233500  1
  C  1564  1  0.81635200  0.37922000  0.50646000  1
  C  1565  1  0.81747600  0.39612800  0.49353800  1
  C  1571  1  0.83691300  0.40421700  0.48702700  1
  C  1575  1  0.76000500  0.42358600  0.47238900  1
  C  1577  1  0.75453300  0.35713800  0.52528000  1
  C  1579  1  0.74024800  0.37651300  0.98570000  1
  C  1580  1  0.72123300  0.38612500  0.99290400  1
  C  1581  1  0.72225400  0.40313700  0.00611200  1
  C  1582  1  0.74274900  0.41057600  0.01227100  1
  C  1583  1  0.76158200  0.40100200  0.00497600  1
  C  1584  1  0.76033700  0.38419500  0.99228600  1
  C  1586  1  0.68353900  0.40451200  0.00652900  1
  C  1587  1  0.68242700  0.38765200  0.99356200  1
  C  1593  1  0.66297000  0.37960800  0.98702700  1
  C  1597  1  0.73993300  0.36027600  0.97238100  1
  C  1599  1  0.74531200  0.42667400  0.02531200  1
  C  1601  1  0.10380700  0.16390000  0.96888300  1
  C  1602  1  0.12216700  0.15113600  0.97297100  1
  C  1603  1  0.12222400  0.12846700  0.96976100  1
  C  1604  1  0.10331900  0.11863600  0.96234800  1
  C  1605  1  0.08443600  0.13117600  0.96002700  1
  C  1606  1  0.08465700  0.15351600  0.96327800  1
  C  1608  1  0.15964500  0.12754900  0.97869400  1
  C  1609  1  0.15956300  0.15001600  0.98171900  1
  C  1615  1  0.17778300  0.16135600  0.98714900  1
  C  1619  1  0.10589400  0.18567000  0.96508300  1
  C  1621  1  0.10495800  0.10052100  0.95134700  1
  C  1623  1  0.39604600  0.61989900  0.46889000  1
  C  1624  1  0.37767100  0.63265400  0.47294700  1
  C  1625  1  0.37760900  0.65532300  0.46973500  1
  C  1626  1  0.39651300  0.66516100  0.46232700  1
  C  1627  1  0.41537300  0.65260100  0.45997100  1
  C  1628  1  0.41521000  0.63028000  0.46330700  1
  C  1630  1  0.34018600  0.65622800  0.47866000  1
  C  1631  1  0.34027000  0.63375900  0.48168000  1
  C  1637  1  0.32203300  0.62245500  0.48714200  1
  C  1641  1  0.39395000  0.59814300  0.46503500  1
  C  1643  1  0.39488300  0.68329300  0.45134300  1
  C  1645  1  0.97717300  0.74541900  0.21892300  1
  C  1646  1  0.98953600  0.76352500  0.22448300  1
  C  1647  1  0.01247000  0.76264900  0.22474500  1
  C  1648  1  0.02301100  0.74337900  0.21894100  1
  C  1649  1  0.01055400  0.72497900  0.21460600  1
  C  1650  1  0.98790400  0.72597000  0.21465400  1
  C  1652  1  0.01330700  0.79997000  0.23371800  1
  C  1653  1  0.99056900  0.80094000  0.23325800  1
  C  1659  1  0.97910900  0.81972700  0.23682900  1
  C  1663  1  0.95573100  0.74750100  0.21403700  1
  C  1665  1  0.04427700  0.74363700  0.21327100  1
  C  1667  1  0.52268800  0.03836200  0.71889300  1
  C  1668  1  0.51034100  0.02025000  0.72446300  1
  C  1669  1  0.48740600  0.02111400  0.72473800  1
  C  1670  1  0.47684700  0.04037300  0.71893600  1
  C  1671  1  0.48929700  0.05876800  0.71455600  1
  C  1672  1  0.51195000  0.05781200  0.71463900  1
  C  1674  1  0.48659100  0.98380100  0.73372900  1
  C  1675  1  0.50933100  0.98283900  0.73325500  1
  C  1681  1  0.52079900  0.96406000  0.73683000  1
  C  1685  1  0.54411800  0.03629100  0.71398600  1
  C  1687  1  0.45558100  0.04011600  0.71325800  1
  C  1689  1  0.39645600  0.16309000  0.53059100  1
  C  1690  1  0.37793500  0.15051500  0.52661100  1
  C  1691  1  0.37764800  0.12786000  0.52988600  1
  C  1692  1  0.39646600  0.11785100  0.53728000  1
  C  1693  1  0.41549400  0.13019600  0.53951100  1
  C  1694  1  0.41551000  0.15252500  0.53618400  1
  C  1696  1  0.34017300  0.12731500  0.52111000  1
  C  1697  1  0.34047200  0.14977600  0.51805300  1
  C  1703  1  0.32233200  0.16130700  0.51272000  1
  C  1707  1  0.39457100  0.18485900  0.53443800  1
  C  1709  1  0.39464200  0.09981200  0.54835800  1
  C  1711  1  0.10344100  0.62068200  0.03060600  1
  C  1712  1  0.12197000  0.63325800  0.02664700  1
  C  1713  1  0.12226300  0.65590900  0.02993600  1
  C  1714  1  0.10345000  0.66591800  0.03734000  1
  C  1715  1  0.08445000  0.65354600  0.03961300  1
  C  1716  1  0.08437600  0.63124200  0.03618700  1
  C  1718  1  0.15973300  0.65645300  0.02114300  1
  C  1719  1  0.15943300  0.63399400  0.01807800  1
  C  1725  1  0.17758900  0.62250300  0.01270400  1
  C  1729  1  0.10532400  0.59889900  0.03442400  1
  C  1731  1  0.10526900  0.68397200  0.04839900  1
  C  1733  1  0.52174700  0.74514500  0.28082000  1
  C  1734  1  0.50959500  0.76341600  0.27531500  1
  C  1735  1  0.48664900  0.76285100  0.27515000  1
  C  1736  1  0.47589700  0.74372600  0.28102000  1
  C  1737  1  0.48812900  0.72515700  0.28529600  1
  C  1738  1  0.51078900  0.72584300  0.28515000  1
  C  1740  1  0.48627300  0.80017400  0.26615600  1
  C  1741  1  0.50902400  0.80084500  0.26654900  1
  C  1747  1  0.52072000  0.81948100  0.26296200  1
  C  1751  1  0.54322400  0.74698100  0.28564300  1
  C  1753  1  0.45464700  0.74424400  0.28674500  1
  C  1755  1  0.97818000  0.03865700  0.78079600  1
  C  1756  1  0.99031500  0.02037800  0.77528700  1
  C  1757  1  0.01326000  0.02093400  0.77510600  1
  C  1758  1  0.02404300  0.04004800  0.78095500  1
  C  1759  1  0.01180800  0.05861100  0.78527500  1
  C  1760  1  0.98914500  0.05796100  0.78509500  1
  C  1762  1  0.01361400  0.98361100  0.76611800  1
  C  1763  1  0.99086200  0.98294800  0.76653200  1
  C  1769  1  0.97915800  0.96431400  0.76295800  1
  C  1773  1  0.95671500  0.03683300  0.78564900  1
  C  1775  1  0.04528500  0.03954000  0.78670200  1
  C  1777  1  0.89614000  0.61998300  0.03102800  1
  C  1778  1  0.87775100  0.63271400  0.02696700  1
  C  1779  1  0.87765900  0.65538000  0.03019800  1
  C  1780  1  0.89653800  0.66522500  0.03763900  1
  C  1781  1  0.91544500  0.65271800  0.03994100  1
  C  1782  1  0.91526800  0.63038700  0.03665600  1
  C  1784  1  0.84025100  0.65626300  0.02124100  1
  C  1785  1  0.84035700  0.63379600  0.01821500  1
  C  1791  1  0.82215200  0.62244100  0.01277000  1
  C  1795  1  0.89407700  0.59824200  0.03490800  1
  C  1797  1  0.89484400  0.68328300  0.04870100  1
  C  1799  1  0.60380600  0.16384100  0.53105600  1
  C  1800  1  0.62219000  0.15109600  0.52701000  1
  C  1801  1  0.62227600  0.12843600  0.53027600  1
  C  1802  1  0.60342100  0.11856900  0.53775700  1
  C  1803  1  0.58455600  0.13114300  0.54007300  1
  C  1804  1  0.58466900  0.15344800  0.53667500  1
  C  1806  1  0.65967800  0.12753700  0.52128100  1
  C  1807  1  0.65957300  0.14999800  0.51822500  1
  C  1813  1  0.67779200  0.16130500  0.51272100  1
  C  1817  1  0.60586900  0.18561100  0.53486000  1
  C  1819  1  0.60507100  0.10047300  0.54876200  1
  C  1821  1  0.60340000  0.62072000  0.46909100  1
  C  1822  1  0.62193500  0.63328400  0.47306800  1
  C  1823  1  0.62225200  0.65592700  0.46971800  1
  C  1824  1  0.60346600  0.66592100  0.46222400  1
  C  1825  1  0.58443200  0.65358700  0.46005100  1
  C  1826  1  0.58437200  0.63127800  0.46344700  1
  C  1828  1  0.65969900  0.65647500  0.47859100  1
  C  1829  1  0.65937000  0.63403100  0.48173100  1
  C  1835  1  0.67748400  0.62250300  0.48712900  1
  C  1839  1  0.60529600  0.59889400  0.46543600  1
  C  1841  1  0.60538100  0.68394000  0.45114900  1
  C  1843  1  0.89653000  0.16300100  0.96911700  1
  C  1844  1  0.87798200  0.15045700  0.97307600  1
  C  1845  1  0.87767400  0.12780900  0.96975500  1
  C  1846  1  0.89645300  0.11776700  0.96230300  1
  C  1847  1  0.91547700  0.13013900  0.96010100  1
  C  1848  1  0.91557400  0.15243900  0.96353600  1
  C  1850  1  0.84021700  0.12727100  0.97858800  1
  C  1851  1  0.84053500  0.14972400  0.98168500  1
  C  1857  1  0.82240900  0.16125300  0.98705600  1
  C  1861  1  0.89462800  0.18478300  0.96532600  1
  C  1863  1  0.89464500  0.09974500  0.95121700  1
  C  1865  1  0.47545600  0.24765300  0.71858900  1
  C  1866  1  0.48858600  0.26581100  0.72247800  1
  C  1867  1  0.51113600  0.26558300  0.71864800  1
  C  1868  1  0.52041100  0.24675900  0.71059700  1
  C  1869  1  0.50748800  0.22816400  0.70819100  1
  C  1870  1  0.48533600  0.22856400  0.71221200  1
  C  1872  1  0.51318100  0.30255600  0.72865300  1
  C  1873  1  0.49083700  0.30279400  0.73227500  1
  C  1879  1  0.48017800  0.32100800  0.73863800  1
  C  1883  1  0.45342500  0.24963200  0.71619300  1
  C  1885  1  0.53846000  0.24825400  0.69949500  1
  C  1887  1  0.02446200  0.53614300  0.21855800  1
  C  1888  1  0.01133800  0.51797700  0.22244200  1
  C  1889  1  0.98878700  0.51819100  0.21861000  1
  C  1890  1  0.97950800  0.53700300  0.21054400  1
  C  1891  1  0.99244900  0.55557600  0.20809000  1
  C  1892  1  0.01457700  0.55523700  0.21219300  1
  C  1894  1  0.98675900  0.48122300  0.22863300  1
  C  1895  1  0.00910600  0.48098800  0.23224000  1
  C  1901  1  0.01974700  0.46275100  0.23860100  1
  C  1905  1  0.04652000  0.53418300  0.21625200  1
  C  1907  1  0.96145500  0.53548800  0.19944900  1
  C  1909  1  0.02390000  0.24745100  0.78119500  1
  C  1910  1  0.01091600  0.26572400  0.77733500  1
  C  1911  1  0.98838700  0.26569800  0.78126200  1
  C  1912  1  0.97897100  0.24698300  0.78939900  1
  C  1913  1  0.99176500  0.22828500  0.79173700  1
  C  1914  1  0.01389200  0.22846200  0.78762200  1
  C  1916  1  0.98663300  0.30269300  0.77126200  1
  C  1917  1  0.00896100  0.30273200  0.76756200  1
  C  1923  1  0.01977400  0.32086400  0.76121600  1
  C  1927  1  0.04598600  0.24929500  0.78336800  1
  C  1929  1  0.96095000  0.24867800  0.80049900  1
  C  1931  1  0.47604200  0.53625700  0.28121100  1
  C  1932  1  0.48904400  0.51800800  0.27733800  1
  C  1933  1  0.51158300  0.51808700  0.28122600  1
  C  1934  1  0.52098800  0.53681400  0.28934200  1
  C  1935  1  0.50813600  0.55547200  0.29174100  1
  C  1936  1  0.48601500  0.55527900  0.28760300  1
  C  1938  1  0.51340800  0.48110800  0.27120200  1
  C  1939  1  0.49106900  0.48101000  0.26755100  1
  C  1945  1  0.48029400  0.46285700  0.26120400  1
  C  1949  1  0.45398800  0.53436600  0.28349900  1
  C  1951  1  0.53899900  0.53520000  0.30046800  1
  N  4  1  0.18577700  0.31970600  0.87386200  1
  N  8  1  0.16966200  0.28688700  0.90161200  1
  N  14  1  0.13813800  0.27076400  0.87271600  1
  N  20  1  0.15401800  0.30394300  0.84510800  1
  N  75  1  0.05210500  0.26013700  0.79742400  1
  N  76  1  0.11808600  0.19023000  0.95140300  1
  N  77  1  0.24012700  0.35996400  0.96183200  1
  N  78  1  0.22002000  0.38546700  0.78944900  1
  N  82  1  0.31408100  0.46404500  0.37385900  1
  N  86  1  0.33013900  0.49692600  0.40158100  1
  N  92  1  0.36159600  0.51311300  0.37265800  1
  N  98  1  0.34578900  0.47984900  0.34508500  1
  N  153  1  0.44785800  0.52376900  0.29768500  1
  N  154  1  0.38184200  0.59360300  0.45130000  1
  N  155  1  0.25986000  0.42382700  0.46191600  1
  N  156  1  0.27971900  0.39837400  0.28944300  1
  N  160  1  0.82132600  0.82840100  0.12418400  1
  N  164  1  0.85454200  0.81215100  0.15163000  1
  N  170  1  0.87093600  0.78154600  0.12227000  1
  N  176  1  0.83732800  0.79754500  0.09497900  1
  N  231  1  0.88841500  0.70183300  0.04295400  1
  N  232  1  0.95166300  0.76010200  0.20051800  1
  N  233  1  0.78209100  0.88275500  0.21221100  1
  N  234  1  0.75526700  0.86255500  0.03967800  1
  N  238  1  0.67855900  0.95536400  0.62418400  1
  N  242  1  0.64536700  0.97163600  0.65163200  1
  N  248  1  0.62891100  0.00216100  0.62224400  1
  N  254  1  0.66255500  0.98618300  0.59497000  1
  N  309  1  0.61154700  0.08195400  0.54298200  1
  N  310  1  0.54818300  0.02371900  0.70044500  1
  N  311  1  0.71783400  0.90101000  0.71220300  1
  N  312  1  0.74453400  0.92116600  0.53962900  1
  N  316  1  0.31323200  0.31858200  0.62485800  1
  N  320  1  0.33013400  0.28619700  0.59722300  1
  N  326  1  0.36206900  0.27079400  0.62619600  1
  N  332  1  0.34543100  0.30354800  0.65370300  1
  N  387  1  0.44739000  0.26030900  0.70201600  1
  N  388  1  0.38267300  0.18952000  0.54827700  1
  N  389  1  0.25680200  0.35784200  0.53775100  1
  N  390  1  0.27788600  0.38333600  0.70962700  1
  N  394  1  0.18662100  0.46518400  0.12486700  1
  N  398  1  0.16973800  0.49759800  0.09724700  1
  N  404  1  0.13782900  0.51302500  0.12623500  1
  N  410  1  0.15441500  0.48020500  0.15371300  1
  N  465  1  0.05258000  0.52331300  0.20219200  1
  N  466  1  0.11724700  0.59423200  0.04824300  1
  N  467  1  0.24291200  0.42586300  0.03771600  1
  N  468  1  0.22203200  0.40032900  0.20953900  1
  N  472  1  0.67744000  0.82929000  0.37448400  1
  N  476  1  0.64467300  0.81215600  0.34719600  1
  N  482  1  0.62906000  0.78110300  0.37666900  1
  N  488  1  0.66216800  0.79798500  0.40384300  1
  N  543  1  0.61176900  0.70251400  0.45688300  1
  N  544  1  0.54744400  0.75942200  0.29923300  1
  N  545  1  0.71552500  0.88592800  0.28741400  1
  N  546  1  0.74275700  0.86456900  0.45916600  1
  N  550  1  0.82239400  0.95459800  0.87443300  1
  N  554  1  0.85521800  0.97168500  0.84717500  1
  N  560  1  0.87084300  0.00270700  0.87665900  1
  N  566  1  0.83771500  0.98583700  0.90381800  1
  N  621  1  0.88814400  0.08120900  0.95694200  1
  N  622  1  0.95251000  0.02444700  0.79927900  1
  N  623  1  0.78440000  0.89781700  0.78740400  1
  N  624  1  0.75728400  0.91931900  0.95927100  1
  N  628  1  0.81411100  0.46371200  0.12570600  1
  N  632  1  0.83021300  0.49673100  0.09803000  1
  N  638  1  0.86100800  0.51331600  0.12718700  1
  N  644  1  0.84513100  0.47993400  0.15472900  1
  N  699  1  0.94266800  0.52984200  0.20523400  1
  N  700  1  0.88206900  0.59365400  0.04869500  1
  N  701  1  0.75956300  0.42390200  0.03783400  1
  N  702  1  0.77967700  0.39813200  0.21029400  1
  N  706  1  0.68580300  0.32005400  0.62573900  1
  N  710  1  0.66973300  0.28701200  0.59807900  1
  N  716  1  0.63891700  0.27043500  0.62723000  1
  N  722  1  0.65476100  0.30384400  0.65476000  1
  N  777  1  0.55724900  0.25390000  0.70527500  1
  N  778  1  0.61798200  0.19021000  0.54857400  1
  N  779  1  0.74023600  0.35984200  0.53777900  1
  N  780  1  0.72035000  0.38556400  0.71031200  1
  N  784  1  0.17857700  0.95539400  0.87577100  1
  N  788  1  0.14562800  0.97214000  0.84839100  1
  N  794  1  0.12944000  0.00264400  0.87796000  1
  N  800  1  0.16277500  0.98614700  0.90517600  1
  N  855  1  0.11146100  0.08202000  0.95715000  1
  N  856  1  0.04959000  0.02656200  0.79990100  1
  N  857  1  0.21774700  0.90125000  0.78763000  1
  N  858  1  0.24492000  0.92114900  0.96015200  1
  N  862  1  0.32133300  0.82840100  0.37577700  1
  N  866  1  0.35425000  0.81162000  0.34839500  1
  N  872  1  0.37051700  0.78120600  0.37799900  1
  N  878  1  0.33713100  0.79768200  0.40519200  1
  N  933  1  0.38837600  0.70178500  0.45716300  1
  N  934  1  0.45034300  0.75718500  0.29997000  1
  N  935  1  0.28212700  0.88255300  0.28764700  1
  N  936  1  0.25508300  0.86268600  0.46021000  1
  N  940  1  0.68669700  0.46489900  0.37523700  1
  N  944  1  0.66973000  0.49744200  0.40280300  1
  N  950  1  0.63844200  0.51325700  0.37358300  1
  N  956  1  0.65514600  0.48035700  0.34612600  1
  N  1011  1  0.55779600  0.52957300  0.29468400  1
  N  1012  1  0.61729100  0.59415200  0.45168100  1
  N  1013  1  0.74329600  0.42609100  0.46225300  1
  N  1014  1  0.72214300  0.40020900  0.29034500  1
  N  1018  1  0.81321900  0.31890700  0.87524300  1
  N  1022  1  0.83013900  0.28632100  0.90279500  1
  N  1028  1  0.86139100  0.27047000  0.87355900  1
  N  1034  1  0.84476300  0.30344100  0.84612600  1
  N  1089  1  0.94214000  0.25426400  0.79471500  1
  N  1090  1  0.88283300  0.18949000  0.95143900  1
  N  1091  1  0.75666000  0.35773900  0.96227200  1
  N  1092  1  0.77773000  0.38368500  0.79043200  1
  N  1096  1  0.32246700  0.95446000  0.62524700  1
  N  1100  1  0.35493900  0.97214000  0.65248700  1
  N  1106  1  0.37032600  0.00314100  0.62281400  1
  N  1112  1  0.33752500  0.98571700  0.59569500  1
  N  1167  1  0.38814100  0.08128000  0.54262100  1
  N  1168  1  0.45112700  0.02729000  0.69999000  1
  N  1169  1  0.28439100  0.89805400  0.71240900  1
  N  1170  1  0.25684900  0.91910000  0.54070700  1
  N  1174  1  0.17746800  0.82923900  0.12529500  1
  N  1178  1  0.14495500  0.81158900  0.15251200  1
  N  1184  1  0.12951400  0.78065200  0.12281700  1
  N  1190  1  0.16234700  0.79806000  0.09571300  1
  N  1245  1  0.11176700  0.70249600  0.04263900  1
  N  1246  1  0.04872300  0.75642100  0.19997200  1
  N  1247  1  0.21549300  0.88574400  0.21242300  1
  N  1248  1  0.24289100  0.86456400  0.04059000  1
  N  1255  1  0.26689100  0.44069300  0.73591700  1
  N  1258  1  0.23792100  0.44150100  0.76361600  1
  N  1277  1  0.23296500  0.34307100  0.23591500  1
  N  1280  1  0.26192700  0.34231300  0.26362200  1
  N  1299  1  0.70021000  0.90889900  0.98585800  1
  N  1302  1  0.69939100  0.87998700  0.01360900  1
  N  1321  1  0.79966900  0.87484200  0.48586800  1
  N  1324  1  0.80044600  0.90378700  0.51359500  1
  N  1343  1  0.73302900  0.34292800  0.26395400  1
  N  1346  1  0.76194100  0.34213500  0.23621100  1
  N  1365  1  0.76690200  0.44086200  0.76394900  1
  N  1368  1  0.73799700  0.44159900  0.73620000  1
  N  1387  1  0.29993000  0.87484300  0.01398200  1
  N  1390  1  0.30076100  0.90377500  0.98624600  1
  N  1409  1  0.19999000  0.90897600  0.51397300  1
  N  1412  1  0.19920700  0.87999900  0.48626800  1
  N  1431  1  0.76981800  0.93926200  0.23762200  1
  N  1434  1  0.73743700  0.94114000  0.26238600  1
  N  1453  1  0.73012000  0.84451300  0.73752900  1
  N  1456  1  0.76242600  0.84260200  0.76236200  1
  N  1475  1  0.20333000  0.41147100  0.48746100  1
  N  1478  1  0.20153900  0.37940700  0.51253100  1
  N  1497  1  0.29655200  0.37232600  0.98748400  1
  N  1500  1  0.29824800  0.40438600  0.01255700  1
  N  1519  1  0.23009600  0.84471800  0.76223200  1
  N  1522  1  0.26246500  0.84283500  0.73745700  1
  N  1541  1  0.26974600  0.93907700  0.26233000  1
  N  1544  1  0.23745900  0.94097700  0.23747800  1
  N  1563  1  0.79672900  0.37220700  0.51230200  1
  N  1566  1  0.79852900  0.40442200  0.48737200  1
  N  1585  1  0.70315600  0.41154100  0.01236800  1
  N  1588  1  0.70138500  0.37939500  0.98737500  1
  N  1607  1  0.14130100  0.11772600  0.97273200  1
  N  1610  1  0.14082500  0.16067500  0.97852200  1
  N  1629  1  0.35852800  0.66605600  0.47270100  1
  N  1632  1  0.35901700  0.62310700  0.47849500  1
  N  1651  1  0.02337500  0.78110000  0.22949500  1
  N  1654  1  0.97986600  0.78263700  0.22857400  1
  N  1673  1  0.47651200  0.00266500  0.72950700  1
  N  1676  1  0.52002200  0.00114400  0.72855500  1
  N  1695  1  0.35844800  0.11731100  0.52701300  1
  N  1698  1  0.35934300  0.16024100  0.52113600  1
  N  1717  1  0.14146500  0.66645500  0.02706100  1
  N  1720  1  0.14055500  0.62353000  0.02115400  1
  N  1739  1  0.47597100  0.78144300  0.27042300  1
  N  1742  1  0.51950000  0.78239800  0.27119400  1
  N  1761  1  0.02392700  0.00234100  0.77036800  1
  N  1764  1  0.98039700  0.00139800  0.77118100  1
  N  1783  1  0.85857600  0.66610400  0.02722300  1
  N  1786  1  0.85910600  0.62315300  0.02141300  1
  N  1805  1  0.64135800  0.11771100  0.52729700  1
  N  1808  1  0.64082400  0.16064600  0.52141700  1
  N  1827  1  0.64145800  0.66646500  0.47259200  1
  N  1830  1  0.64050000  0.62356900  0.47863000  1
  N  1849  1  0.85846800  0.11727100  0.97263000  1
  N  1852  1  0.85940600  0.16018600  0.97859100  1
  N  1871  1  0.52238400  0.28430300  0.72185500  1
  N  1874  1  0.47963300  0.28441200  0.72882800  1
  N  1893  1  0.97754700  0.49947200  0.22183000  1
  N  1896  1  0.02029700  0.49938000  0.22879700  1
  N  1915  1  0.97730000  0.28452600  0.77810200  1
  N  1918  1  0.02000600  0.28424700  0.77095700  1
  N  1937  1  0.52271300  0.49929600  0.27803000  1
  N  1940  1  0.47998100  0.49946600  0.27097600  1
  O  1261  1  0.26902100  0.47844600  0.73572300  1
  O  1264  1  0.23282800  0.48004600  0.78094400  1
  O  1265  1  0.22906500  0.49409000  0.75539600  1
  O  1283  1  0.23086400  0.30531900  0.23574800  1
  O  1286  1  0.26702500  0.30389600  0.28096300  1
  O  1287  1  0.27092900  0.28976700  0.25544100  1
  O  1305  1  0.66247000  0.91107700  0.98568700  1
  O  1308  1  0.66086200  0.87485400  0.03091100  1
  O  1309  1  0.64685000  0.87108500  0.00535700  1
  O  1327  1  0.83740900  0.87267600  0.48573000  1
  O  1330  1  0.83884700  0.90893200  0.53090500  1
  O  1331  1  0.85294000  0.91281500  0.50537100  1
  O  1349  1  0.73089300  0.30517800  0.26413100  1
  O  1352  1  0.76702800  0.30360200  0.21887100  1
  O  1353  1  0.77082800  0.28955300  0.24441200  1
  O  1371  1  0.76900300  0.47861300  0.76410100  1
  O  1374  1  0.73289900  0.48000700  0.71884800  1
  O  1375  1  0.72896000  0.49414200  0.74436300  1
  O  1393  1  0.33766900  0.87265700  0.01415700  1
  O  1396  1  0.33928600  0.90893000  0.96895900  1
  O  1397  1  0.35327500  0.91269500  0.99452100  1
  O  1415  1  0.16225000  0.91115800  0.51410200  1
  O  1418  1  0.16070200  0.87479700  0.46895700  1
  O  1419  1  0.14670100  0.87104900  0.49451400  1
  O  1437  1  0.77253700  0.97694100  0.23691600  1
  O  1440  1  0.73066000  0.98030400  0.27832500  1
  O  1441  1  0.73050400  0.99358300  0.25227100  1
  O  1459  1  0.72742300  0.80683900  0.73675100  1
  O  1462  1  0.76906900  0.80353700  0.77831400  1
  O  1463  1  0.76935500  0.79011700  0.75228700  1
  O  1481  1  0.16565200  0.41415000  0.48679200  1
  O  1484  1  0.16240700  0.37272000  0.52855500  1
  O  1485  1  0.14902900  0.37236900  0.50254000  1
  O  1503  1  0.33423500  0.36971300  0.98685700  1
  O  1506  1  0.33734100  0.41114400  0.02862500  1
  O  1507  1  0.35075200  0.41153500  0.00262200  1
  O  1525  1  0.22737300  0.80703800  0.76294200  1
  O  1528  1  0.26923400  0.80365900  0.72152100  1
  O  1529  1  0.26936700  0.79036700  0.74757100  1
  O  1547  1  0.27243400  0.97675500  0.26310000  1
  O  1550  1  0.23082200  0.98004400  0.22151200  1
  O  1551  1  0.23054300  0.99348600  0.24753200  1
  O  1569  1  0.83440700  0.36954300  0.51298000  1
  O  1572  1  0.83764900  0.41114200  0.47134900  1
  O  1573  1  0.85100100  0.41145100  0.49737500  1
  O  1591  1  0.66547800  0.41414000  0.01309200  1
  O  1594  1  0.66238600  0.37274700  0.97132200  1
  O  1595  1  0.64887800  0.37229600  0.99731500  1
  O  1613  1  0.17781000  0.11566800  0.98100900  1
  O  1616  1  0.18040500  0.17965500  0.98129300  1
  O  1617  1  0.18735400  0.15735800  0.00164200  1
  O  1635  1  0.32202200  0.66810600  0.48099300  1
  O  1638  1  0.31953000  0.60415800  0.48123500  1
  O  1639  1  0.31265600  0.62630400  0.50174300  1
  O  1657  1  0.02536900  0.81761400  0.23767700  1
  O  1660  1  0.96224300  0.82289400  0.22856600  1
  O  1661  1  0.98088300  0.82972500  0.25143500  1
  O  1679  1  0.47454000  0.96615800  0.73771000  1
  O  1682  1  0.53766200  0.96089300  0.72856000  1
  O  1683  1  0.51904200  0.95407500  0.75144400  1
  O  1701  1  0.32186700  0.11562500  0.51889700  1
  O  1704  1  0.31992900  0.17962100  0.51860900  1
  O  1705  1  0.31261200  0.15741700  0.49827800  1
  O  1723  1  0.17803400  0.66814400  0.01890900  1
  O  1726  1  0.17987600  0.60418600  0.01863400  1
  O  1727  1  0.18711000  0.62625500  0.99815200  1
  O  1745  1  0.47443300  0.81797500  0.26222100  1
  O  1748  1  0.53763700  0.82243300  0.27120700  1
  O  1749  1  0.51904700  0.82950300  0.24836000  1
  O  1767  1  0.02544400  0.96580700  0.76217300  1
  O  1770  1  0.96224700  0.96137000  0.77121600  1
  O  1771  1  0.98081200  0.95428500  0.74835800  1
  O  1789  1  0.82207800  0.66812800  0.01890400  1
  O  1792  1  0.81952700  0.60414900  0.01864100  1
  O  1793  1  0.81261700  0.62641200  0.99825400  1
  O  1811  1  0.67784400  0.11566500  0.51892900  1
  O  1814  1  0.68030600  0.17960500  0.51861800  1
  O  1815  1  0.68713100  0.15744800  0.49810500  1
  O  1833  1  0.67800700  0.66815800  0.48081800  1
  O  1836  1  0.67989800  0.60417100  0.48128200  1
  O  1837  1  0.68716500  0.62643300  0.50158100  1
  O  1855  1  0.82191200  0.11558600  0.98082700  1
  O  1858  1  0.81999000  0.17957100  0.98117600  1
  O  1859  1  0.81273600  0.15736200  0.00152000  1
  O  1877  1  0.52556800  0.32032800  0.73126400  1
  O  1880  1  0.46176700  0.32440600  0.73337100  1
  O  1881  1  0.48512700  0.33003200  0.75317800  1
  O  1899  1  0.97437500  0.46345300  0.23126400  1
  O  1902  1  0.03818200  0.45951100  0.23331000  1
  O  1903  1  0.01492200  0.45384300  0.25321000  1
  O  1921  1  0.97440200  0.32058300  0.76869800  1
  O  1924  1  0.03820800  0.32410800  0.76650200  1
  O  1925  1  0.01491600  0.32993500  0.74667700  1
  O  1943  1  0.52568400  0.46325800  0.26858900  1
  O  1946  1  0.46188600  0.45954600  0.26652400  1
  O  1947  1  0.48513400  0.45383500  0.24664000  1
