# generated using pymatgen
data_H28C43(N2O)2
_symmetry_space_group_name_H-M   'P 1'
_cell_length_a   34.55740000
_cell_length_b   62.59720000
_cell_length_c   62.59720000
_cell_angle_alpha   90.00000000
_cell_angle_beta   90.00000000
_cell_angle_gamma   90.00000000
_symmetry_Int_Tables_number   1
_chemical_formula_structural   H28C43(N2O)2
_chemical_formula_sum   'H448 C688 N64 O32'
_cell_volume   135410.04265279
_cell_formula_units_Z   16
loop_
 _symmetry_equiv_pos_site_id
 _symmetry_equiv_pos_as_xyz
  1  'x, y, z'
loop_
 _atom_site_type_symbol
 _atom_site_label
 _atom_site_symmetry_multiplicity
 _atom_site_fract_x
 _atom_site_fract_y
 _atom_site_fract_z
 _atom_site_occupancy
  H  25  1  0.99806000  0.08492900  0.37956100  1
  H  26  1  0.00567100  0.12263300  0.37611200  1
  H  27  1  0.95422300  0.19670200  0.38100200  1
  H  28  1  0.90305900  0.22126200  0.38760500  1
  H  29  1  0.83180600  0.17096900  0.40825000  1
  H  30  1  0.88554300  0.09373500  0.40334200  1
  H  31  1  0.87651700  0.13941100  0.35849200  1
  H  32  1  0.76375200  0.11575300  0.35068600  1
  H  33  1  0.75726700  0.11222100  0.38858300  1
  H  34  1  0.93392300  0.14271600  0.43472000  1
  H  35  1  0.81206200  0.11636600  0.46212300  1
  H  36  1  0.86518000  0.12163400  0.48583400  1
  H  39  1  0.98111400  0.15879900  0.39466600  1
  H  40  1  0.96365100  0.15707800  0.36811200  1
  H  42  1  0.78340000  0.13082800  0.42458600  1
  H  43  1  0.80027300  0.10417700  0.42263500  1
  H  72  1  0.49806300  0.42698800  0.66047800  1
  H  73  1  0.50566200  0.38928600  0.66393000  1
  H  74  1  0.45420900  0.31521800  0.65903500  1
  H  75  1  0.40304500  0.29066100  0.65243400  1
  H  76  1  0.33179500  0.34095900  0.63179600  1
  H  77  1  0.38553800  0.41818900  0.63670400  1
  H  78  1  0.37650100  0.37250800  0.68155200  1
  H  79  1  0.26374400  0.39618000  0.68935600  1
  H  80  1  0.25726000  0.39971200  0.65146000  1
  H  81  1  0.43391500  0.36921100  0.60532400  1
  H  82  1  0.31206000  0.39556400  0.57792200  1
  H  83  1  0.36517800  0.39029700  0.55421100  1
  H  86  1  0.48110300  0.35312300  0.64537200  1
  H  87  1  0.46364500  0.35484100  0.67192900  1
  H  89  1  0.28339200  0.38110000  0.61545500  1
  H  90  1  0.30026500  0.40775100  0.61740900  1
  H  119  1  0.25126700  0.89916600  0.85083800  1
  H  120  1  0.25814900  0.90139700  0.88876100  1
  H  121  1  0.20520700  0.89442000  0.96218100  1
  H  122  1  0.15335100  0.88751700  0.98621000  1
  H  123  1  0.08293200  0.86844400  0.93494700  1
  H  124  1  0.13905300  0.87445100  0.85829500  1
  H  125  1  0.12947700  0.91852100  0.90362600  1
  H  126  1  0.01659900  0.92670700  0.88013300  1
  H  127  1  0.00970100  0.88894500  0.87660700  1
  H  128  1  0.18557200  0.84192200  0.90701800  1
  H  129  1  0.06355900  0.81533100  0.88002900  1
  H  130  1  0.11623000  0.79132100  0.88527700  1
  H  133  1  0.23283000  0.88157200  0.92429300  1
  H  134  1  0.21564400  0.90820800  0.92294000  1
  H  136  1  0.03541000  0.85279200  0.89489100  1
  H  137  1  0.05231000  0.85491500  0.86825400  1
  H  166  1  0.75127100  0.61275900  0.18918700  1
  H  167  1  0.75813800  0.61051900  0.15126300  1
  H  168  1  0.70517700  0.61750600  0.07784600  1
  H  169  1  0.65331500  0.62441400  0.05382400  1
  H  170  1  0.58291100  0.64348500  0.10509500  1
  H  171  1  0.63905800  0.63747100  0.18174100  1
  H  172  1  0.62945100  0.59340000  0.13638000  1
  H  173  1  0.51661500  0.58520100  0.15993200  1
  H  174  1  0.50972500  0.62296500  0.16347800  1
  H  175  1  0.68554800  0.66999900  0.13300200  1
  H  176  1  0.56359500  0.69657900  0.16007400  1
  H  177  1  0.61625800  0.72058900  0.15481000  1
  H  180  1  0.73281200  0.63034700  0.11573800  1
  H  181  1  0.71562000  0.60371300  0.11708300  1
  H  183  1  0.53540100  0.65912800  0.14520000  1
  H  184  1  0.55235600  0.65699200  0.17182500  1
  H  213  1  0.51433500  0.42604900  0.38074500  1
  H  214  1  0.50761900  0.38823900  0.37768800  1
  H  215  1  0.56219700  0.31468300  0.38156500  1
  H  216  1  0.61519600  0.29086600  0.38666700  1
  H  217  1  0.68474400  0.34191300  0.40709500  1
  H  218  1  0.62807300  0.41836200  0.40308600  1
  H  219  1  0.63637200  0.37318400  0.35825900  1
  H  220  1  0.74899400  0.39674900  0.34922900  1
  H  221  1  0.75673700  0.40037400  0.38692300  1
  H  222  1  0.58282100  0.36864900  0.43543100  1
  H  223  1  0.70531300  0.39587200  0.46107300  1
  H  224  1  0.65414300  0.38935700  0.48566200  1
  H  227  1  0.53416900  0.35234000  0.39615200  1
  H  228  1  0.55025200  0.35410800  0.36933900  1
  H  230  1  0.73214900  0.38205400  0.42321400  1
  H  231  1  0.71478100  0.40861900  0.42136200  1
  H  260  1  0.01431500  0.08588300  0.65929900  1
  H  261  1  0.00760100  0.12369200  0.66236100  1
  H  262  1  0.06218300  0.19724700  0.65849700  1
  H  263  1  0.11517400  0.22106600  0.65337900  1
  H  264  1  0.18472000  0.17002000  0.63295400  1
  H  265  1  0.12806200  0.09357000  0.63697200  1
  H  266  1  0.13637100  0.13873800  0.68180000  1
  H  267  1  0.24900300  0.11518100  0.69081500  1
  H  268  1  0.25673600  0.11156400  0.65312100  1
  H  269  1  0.08280400  0.14328400  0.60462900  1
  H  270  1  0.20529600  0.11607000  0.57897600  1
  H  271  1  0.15412000  0.12258700  0.55439200  1
  H  274  1  0.03415500  0.15959100  0.64390200  1
  H  275  1  0.05023200  0.15782200  0.67071500  1
  H  277  1  0.23213400  0.12988800  0.61683700  1
  H  278  1  0.21477500  0.10332100  0.61868500  1
  H  307  1  0.26138400  0.61419500  0.85198500  1
  H  308  1  0.25549600  0.61244200  0.88999800  1
  H  309  1  0.31179100  0.61835800  0.96281600  1
  H  310  1  0.36552200  0.62365500  0.98605500  1
  H  311  1  0.43390400  0.64284500  0.93404300  1
  H  312  1  0.37476400  0.63755200  0.85822600  1
  H  313  1  0.38448700  0.59371600  0.90370400  1
  H  314  1  0.49642000  0.58445700  0.87921300  1
  H  315  1  0.50406500  0.62209600  0.87515500  1
  H  316  1  0.33122200  0.67110900  0.90779600  1
  H  317  1  0.45316700  0.69618900  0.87929900  1
  H  318  1  0.40239100  0.72096000  0.88600900  1
  H  321  1  0.28285000  0.63226100  0.92519100  1
  H  322  1  0.29869400  0.60537800  0.92383900  1
  H  324  1  0.48008800  0.65851800  0.89328100  1
  H  325  1  0.46196700  0.65637100  0.86688600  1
  H  354  1  0.76140200  0.89774200  0.18805000  1
  H  355  1  0.75551300  0.89949300  0.15003600  1
  H  356  1  0.81181100  0.89357300  0.07722000  1
  H  357  1  0.86554700  0.88828500  0.05398300  1
  H  358  1  0.93392300  0.86908300  0.10599600  1
  H  359  1  0.87477300  0.87437200  0.18181200  1
  H  360  1  0.88449800  0.91820700  0.13634000  1
  H  361  1  0.99642500  0.92746100  0.16084600  1
  H  362  1  0.00406500  0.88982000  0.16489900  1
  H  363  1  0.83122800  0.84081700  0.13223700  1
  H  364  1  0.95315800  0.81572900  0.16074500  1
  H  365  1  0.90237900  0.79096300  0.15403300  1
  H  368  1  0.78286500  0.87966800  0.11484100  1
  H  369  1  0.79871400  0.90655100  0.11619800  1
  H  371  1  0.98009300  0.85340000  0.14676600  1
  H  372  1  0.96195800  0.85554600  0.17315800  1
  H  401  1  0.01077600  0.92536200  0.66341900  1
  H  402  1  0.00411400  0.88743800  0.66576100  1
  H  403  1  0.05728900  0.81407700  0.65884800  1
  H  404  1  0.10915600  0.79007800  0.65191800  1
  H  405  1  0.17936100  0.84135200  0.63264300  1
  H  406  1  0.12292500  0.91803200  0.63858200  1
  H  407  1  0.13293900  0.87272100  0.68275400  1
  H  408  1  0.24585600  0.89624100  0.69069500  1
  H  409  1  0.25247700  0.89977100  0.65292800  1
  H  410  1  0.07639900  0.86920800  0.60620100  1
  H  411  1  0.19818000  0.89631300  0.57942200  1
  H  412  1  0.14540600  0.89102800  0.55549700  1
  H  415  1  0.02949300  0.85191300  0.64597300  1
  H  416  1  0.04679700  0.85332800  0.67257900  1
  H  418  1  0.22658500  0.88146400  0.61683900  1
  H  419  1  0.20963200  0.90808900  0.61897000  1
  H  448  1  0.51078700  0.58656600  0.37659800  1
  H  449  1  0.50412600  0.62448900  0.37425600  1
  H  450  1  0.55730100  0.69785000  0.38117500  1
  H  451  1  0.60916500  0.72185000  0.38811100  1
  H  452  1  0.67936500  0.67057400  0.40739000  1
  H  453  1  0.62292500  0.59389500  0.40144900  1
  H  454  1  0.63294600  0.63921300  0.35727600  1
  H  455  1  0.74585700  0.61568400  0.34933500  1
  H  456  1  0.75247500  0.61214800  0.38710200  1
  H  457  1  0.57640300  0.64272600  0.43382700  1
  H  458  1  0.69817100  0.61560200  0.46060800  1
  H  459  1  0.64539800  0.62089200  0.48453100  1
  H  462  1  0.52950100  0.66001600  0.39404800  1
  H  463  1  0.54681400  0.65859900  0.36744300  1
  H  465  1  0.72658400  0.63045400  0.42319400  1
  H  466  1  0.70962400  0.60383000  0.42105800  1
  H  495  1  0.76761500  0.11417500  0.19187100  1
  H  496  1  0.75806800  0.11233500  0.15403100  1
  H  497  1  0.80790400  0.11734400  0.07973400  1
  H  498  1  0.85864900  0.12370100  0.05484100  1
  H  499  1  0.93162300  0.14347500  0.10472600  1
  H  500  1  0.88043300  0.13713100  0.18240900  1
  H  501  1  0.88795600  0.09398700  0.13781200  1
  H  502  1  0.00140500  0.08715800  0.16095000  1
  H  503  1  0.00772500  0.12512800  0.16303900  1
  H  504  1  0.82948000  0.17004400  0.13368700  1
  H  505  1  0.95209300  0.19815400  0.15816000  1
  H  506  1  0.89857900  0.22163400  0.15318700  1
  H  509  1  0.78241900  0.13137800  0.11784400  1
  H  510  1  0.79854900  0.10454900  0.11929200  1
  H  512  1  0.98052700  0.16066700  0.14373100  1
  H  513  1  0.96492100  0.15893700  0.17063700  1
  H  542  1  0.26764000  0.39770900  0.84817500  1
  H  543  1  0.25810400  0.39958300  0.88601000  1
  H  544  1  0.30792800  0.39460000  0.96031100  1
  H  545  1  0.35866400  0.38824700  0.98520800  1
  H  546  1  0.43164900  0.36846200  0.93533200  1
  H  547  1  0.38045900  0.37476700  0.85764600  1
  H  548  1  0.38799500  0.41793900  0.90223500  1
  H  549  1  0.50144300  0.42476300  0.87909800  1
  H  550  1  0.50776000  0.38679300  0.87701000  1
  H  551  1  0.32952400  0.34188200  0.90638800  1
  H  552  1  0.45211400  0.31377100  0.88189000  1
  H  553  1  0.39860300  0.29029200  0.88687800  1
  H  556  1  0.28244600  0.38056000  0.92220400  1
  H  557  1  0.29859000  0.40738700  0.92074800  1
  H  559  1  0.48056500  0.35126000  0.89632400  1
  H  560  1  0.46494800  0.35298200  0.86941800  1
  H  589  1  0.50097500  0.58773700  0.66190600  1
  H  590  1  0.50660300  0.62575300  0.66377200  1
  H  591  1  0.44992300  0.69848900  0.65799700  1
  H  592  1  0.39612300  0.72166900  0.65272200  1
  H  593  1  0.32797300  0.66961100  0.63341800  1
  H  594  1  0.38755500  0.59380700  0.63857300  1
  H  595  1  0.37763200  0.63927400  0.68252800  1
  H  596  1  0.26587900  0.61454500  0.69180200  1
  H  597  1  0.25821600  0.61051700  0.65416300  1
  H  598  1  0.43083900  0.64348400  0.60509500  1
  H  599  1  0.30904200  0.61478300  0.58004800  1
  H  600  1  0.35976300  0.62155600  0.55526900  1
  H  603  1  0.47906600  0.66093800  0.64404100  1
  H  604  1  0.46317400  0.65950500  0.67091000  1
  H  606  1  0.28204900  0.62873100  0.61773300  1
  H  607  1  0.30031700  0.60236700  0.61986300  1
  H  636  1  0.00098600  0.92419100  0.37813800  1
  H  637  1  0.00662200  0.88617500  0.37628200  1
  H  638  1  0.94995500  0.81343500  0.38204700  1
  H  639  1  0.89616300  0.79025200  0.38733500  1
  H  640  1  0.82799500  0.84230500  0.40662800  1
  H  641  1  0.88755400  0.91811500  0.40146000  1
  H  642  1  0.87765500  0.87265200  0.35750800  1
  H  643  1  0.76589300  0.89737000  0.34822800  1
  H  644  1  0.75821900  0.90139300  0.38586700  1
  H  645  1  0.93084400  0.86844200  0.43494400  1
  H  646  1  0.80903300  0.89712700  0.45998700  1
  H  647  1  0.85975100  0.89035700  0.48476700  1
  H  650  1  0.97908300  0.85099000  0.39601100  1
  H  651  1  0.96320800  0.85241900  0.36913900  1
  H  653  1  0.78205200  0.88317800  0.42229800  1
  H  654  1  0.80030800  0.90954500  0.42017200  1
  H  683  1  0.74921100  0.39864400  0.18896400  1
  H  684  1  0.75468600  0.40084800  0.15097000  1
  H  685  1  0.69813600  0.39526800  0.07834200  1
  H  686  1  0.64447800  0.38972200  0.05513600  1
  H  687  1  0.57725300  0.36879100  0.10694700  1
  H  688  1  0.63690800  0.37370300  0.18278900  1
  H  689  1  0.62495400  0.41795800  0.13826800  1
  H  690  1  0.51393600  0.42549500  0.16457300  1
  H  691  1  0.50739300  0.38759200  0.16732400  1
  H  692  1  0.68138400  0.34126600  0.13267700  1
  H  693  1  0.56030200  0.31426800  0.16055200  1
  H  694  1  0.61194900  0.29020800  0.15335000  1
  H  697  1  0.72790700  0.38108700  0.11563100  1
  H  698  1  0.71097900  0.40774600  0.11742300  1
  H  700  1  0.53199800  0.35189200  0.14755500  1
  H  701  1  0.55032700  0.35363700  0.17393700  1
  H  730  1  0.24925600  0.11329100  0.85111100  1
  H  731  1  0.25471800  0.11109100  0.88910600  1
  H  732  1  0.19813100  0.11667100  0.96172800  1
  H  733  1  0.14445600  0.12221400  0.98492400  1
  H  734  1  0.07726300  0.14315200  0.93310200  1
  H  735  1  0.13695100  0.13823200  0.85727100  1
  H  736  1  0.12499900  0.09398400  0.90178100  1
  H  737  1  0.01397800  0.08644300  0.87547800  1
  H  738  1  0.00742700  0.12434500  0.87273200  1
  H  739  1  0.18140900  0.17067400  0.90738800  1
  H  740  1  0.06035100  0.19767200  0.87948000  1
  H  741  1  0.11200100  0.22173000  0.88668300  1
  H  744  1  0.22792300  0.13085200  0.92444300  1
  H  745  1  0.21099300  0.10419200  0.92264600  1
  H  747  1  0.03203200  0.16004700  0.89249100  1
  H  748  1  0.05036600  0.15830100  0.86611000  1
  H  758  1  0.74906900  0.28758000  0.37689000  1
  H  759  1  0.80409900  0.26548000  0.37172100  1
  H  761  1  0.76557500  0.22417900  0.42050300  1
  H  763  1  0.70969100  0.25331000  0.44264600  1
  H  765  1  0.84045600  0.23407400  0.37961300  1
  H  767  1  0.66581900  0.27342900  0.40776100  1
  H  773  1  0.24906600  0.22434100  0.66314700  1
  H  774  1  0.30409700  0.24644100  0.66831500  1
  H  776  1  0.26554900  0.28775400  0.61955300  1
  H  778  1  0.20963400  0.25862800  0.59740800  1
  H  780  1  0.34043900  0.27785600  0.66043500  1
  H  782  1  0.16580500  0.23849900  0.63228300  1
  H  788  1  0.99808300  0.89918200  0.05113900  1
  H  789  1  0.05285200  0.90477900  0.02895900  1
  H  791  1  0.01720000  0.85442400  0.98876700  1
  H  793  1  0.96240300  0.83202400  0.01839000  1
  H  795  1  0.09009200  0.89654400  0.99799300  1
  H  797  1  0.91665400  0.86664000  0.03758600  1
  H  803  1  0.49799700  0.61271500  0.98893200  1
  H  804  1  0.55275800  0.60711300  0.01111300  1
  H  806  1  0.51722000  0.65754000  0.05124700  1
  H  808  1  0.46245600  0.67993900  0.02160200  1
  H  810  1  0.59003800  0.61537200  0.04206000  1
  H  812  1  0.41663400  0.64531600  0.00244800  1
  H  818  1  0.26364400  0.72480500  0.66350400  1
  H  819  1  0.20919800  0.74722300  0.66911400  1
  H  821  1  0.24530900  0.78723800  0.61873000  1
  H  823  1  0.29968700  0.75737000  0.59632200  1
  H  825  1  0.17242800  0.77836500  0.66094400  1
  H  827  1  0.34521700  0.73803100  0.63092200  1
  H  833  1  0.76363600  0.78714000  0.37656600  1
  H  834  1  0.70918200  0.76472700  0.37095400  1
  H  836  1  0.74534700  0.72466900  0.42129000  1
  H  838  1  0.79973500  0.75451400  0.44370600  1
  H  840  1  0.67242800  0.73357200  0.37910500  1
  H  842  1  0.84524500  0.77388500  0.40910700  1
  H  848  1  0.01237100  0.11256700  0.98798300  1
  H  849  1  0.95785200  0.10707100  0.01038200  1
  H  851  1  0.99481900  0.15705600  0.05068200  1
  H  853  1  0.04953900  0.17938300  0.02093100  1
  H  855  1  0.92091600  0.11549100  0.04147500  1
  H  857  1  0.09447100  0.14451900  0.00146900  1
  H  863  1  0.51235900  0.39934300  0.05209400  1
  H  864  1  0.45782900  0.40483700  0.02969900  1
  H  866  1  0.49484900  0.35489600  0.98936000  1
  H  868  1  0.54957200  0.33256400  0.01909300  1
  H  870  1  0.42089900  0.39642600  0.99860300  1
  H  872  1  0.59449100  0.36737600  0.03860100  1
  H  878  1  0.24893500  0.78752200  0.87590600  1
  H  879  1  0.30369700  0.76528100  0.87054800  1
  H  881  1  0.26573200  0.72431100  0.91976300  1
  H  883  1  0.21037800  0.75371200  0.94205100  1
  H  885  1  0.33961400  0.73368700  0.87821900  1
  H  887  1  0.16608200  0.77365200  0.90703800  1
  H  893  1  0.74889800  0.72442200  0.16416400  1
  H  894  1  0.80365600  0.74666700  0.16952200  1
  H  896  1  0.76573400  0.78760300  0.12026900  1
  H  898  1  0.71038500  0.75818800  0.09798400  1
  H  900  1  0.83958200  0.77825500  0.16183800  1
  H  902  1  0.66607400  0.73826600  0.13299700  1
  H  908  1  0.49897500  0.39975600  0.55159000  1
  H  909  1  0.55451400  0.40491200  0.52988000  1
  H  911  1  0.51666700  0.35629800  0.48818300  1
  H  913  1  0.46002500  0.33415000  0.51687600  1
  H  915  1  0.59168400  0.39693300  0.49877400  1
  H  917  1  0.41587600  0.36915200  0.53678600  1
  H  923  1  0.99894800  0.11215400  0.48848000  1
  H  924  1  0.05447600  0.10699800  0.51019500  1
  H  926  1  0.01666900  0.15565300  0.55185700  1
  H  928  1  0.96004500  0.17779700  0.52314800  1
  H  930  1  0.09164300  0.11498500  0.54130000  1
  H  932  1  0.91587200  0.14278100  0.50326000  1
  H  938  1  0.76651500  0.22518900  0.16429600  1
  H  939  1  0.71211600  0.24759400  0.17004100  1
  H  941  1  0.74739300  0.28736900  0.11927000  1
  H  943  1  0.80148900  0.25740600  0.09676300  1
  H  945  1  0.67563700  0.27889200  0.16213000  1
  H  947  1  0.84760300  0.23828000  0.13138100  1
  H  953  1  0.26663600  0.28671100  0.87573800  1
  H  954  1  0.21224200  0.26430600  0.86997400  1
  H  956  1  0.24739000  0.22457400  0.92080700  1
  H  958  1  0.30142000  0.25454800  0.94332700  1
  H  960  1  0.17571400  0.23302800  0.87790100  1
  H  962  1  0.34764400  0.27364300  0.90870900  1
  H  968  1  0.51264200  0.61165600  0.48838900  1
  H  969  1  0.45808400  0.60627400  0.51078000  1
  H  971  1  0.49647500  0.65539300  0.55172900  1
  H  973  1  0.55163500  0.67771400  0.52220800  1
  H  975  1  0.42252300  0.61384700  0.54251600  1
  H  977  1  0.59566900  0.64269300  0.50214000  1
  H  983  1  0.01261200  0.90023300  0.55167100  1
  H  984  1  0.95804000  0.90560900  0.52928800  1
  H  986  1  0.99648900  0.85654100  0.48829300  1
  H  988  1  0.05166100  0.83421700  0.51779400  1
  H  990  1  0.92248100  0.89804800  0.49754700  1
  H  992  1  0.09567800  0.86919600  0.53790200  1
  H  998  1  0.81787600  0.09746900  0.24526600  1
  H  999  1  0.81870900  0.09007500  0.28254100  1
  H  1001  1  0.82150500  0.15616000  0.29581000  1
  H  1003  1  0.84753100  0.17267100  0.25274300  1
  H  1005  1  0.80410800  0.10351200  0.31840500  1
  H  1007  1  0.79245700  0.14557500  0.22274600  1
  H  1013  1  0.31820900  0.41448600  0.79476800  1
  H  1014  1  0.31911200  0.42187200  0.75749000  1
  H  1016  1  0.32108300  0.35577600  0.74423200  1
  H  1018  1  0.34688600  0.33916700  0.78733700  1
  H  1020  1  0.30420100  0.40844600  0.72163200  1
  H  1022  1  0.29212500  0.36651000  0.81727200  1
  H  1028  1  0.06488400  0.03239400  0.86286500  1
  H  1029  1  0.05358600  0.99548600  0.85695600  1
  H  1031  1  0.09672300  0.98135300  0.91842400  1
  H  1033  1  0.13994500  0.01890600  0.92829000  1
  H  1035  1  0.04807700  0.95971500  0.87103200  1
  H  1037  1  0.11575400  0.05578800  0.90685800  1
  H  1043  1  0.56590400  0.47956600  0.17732900  1
  H  1044  1  0.55470800  0.51648300  0.18328900  1
  H  1046  1  0.59563700  0.53053500  0.12134600  1
  H  1048  1  0.63860600  0.49300300  0.11107500  1
  H  1050  1  0.54822100  0.55219400  0.16904900  1
  H  1052  1  0.61540400  0.45613300  0.13293800  1
  H  1058  1  0.70208900  0.41223700  0.24340500  1
  H  1059  1  0.71425700  0.41837900  0.28017800  1
  H  1061  1  0.66474500  0.35867200  0.29543000  1
  H  1063  1  0.62026000  0.34964200  0.25813000  1
  H  1065  1  0.71759700  0.40519700  0.31623600  1
  H  1067  1  0.64650000  0.36941900  0.22089500  1
  H  1073  1  0.20255200  0.09977800  0.79666400  1
  H  1074  1  0.21473300  0.09365300  0.75989300  1
  H  1076  1  0.16435800  0.15313100  0.74461400  1
  H  1078  1  0.11981500  0.16199600  0.78192700  1
  H  1080  1  0.21763600  0.10673400  0.72380700  1
  H  1082  1  0.14646400  0.14243100  0.81916500  1
  H  1088  1  0.45186200  0.47881700  0.86428200  1
  H  1089  1  0.46267000  0.51567300  0.85793400  1
  H  1091  1  0.41274800  0.53069600  0.91760400  1
  H  1093  1  0.36963700  0.49299100  0.92683800  1
  H  1095  1  0.46362500  0.55185800  0.87044700  1
  H  1097  1  0.39700600  0.45595900  0.90712800  1
  H  1103  1  0.95199200  0.03311000  0.17573500  1
  H  1104  1  0.96283500  0.99625600  0.18207200  1
  H  1106  1  0.91259100  0.98122000  0.12248700  1
  H  1108  1  0.86943100  0.01892400  0.11331700  1
  H  1110  1  0.96367700  0.96006600  0.16958400  1
  H  1112  1  0.89693000  0.05596000  0.13295600  1
  H  1118  1  0.20200900  0.91254700  0.79675900  1
  H  1119  1  0.21287300  0.91848300  0.75982700  1
  H  1121  1  0.16345300  0.85853300  0.74547500  1
  H  1123  1  0.12032600  0.84961200  0.78326500  1
  H  1125  1  0.21505600  0.90510500  0.72382100  1
  H  1127  1  0.14769400  0.86965600  0.82012100  1
  H  1133  1  0.70187800  0.59935400  0.24327600  1
  H  1134  1  0.71272600  0.59341000  0.28020700  1
  H  1136  1  0.66360500  0.65343600  0.29455000  1
  H  1138  1  0.62050900  0.66241900  0.25675900  1
  H  1140  1  0.71504100  0.60681600  0.31620700  1
  H  1142  1  0.64775300  0.64230900  0.21990900  1
  H  1148  1  0.31016500  0.59963200  0.79746200  1
  H  1149  1  0.29940300  0.59334200  0.76058900  1
  H  1151  1  0.34953100  0.65297600  0.74566200  1
  H  1153  1  0.39259900  0.66213300  0.78339400  1
  H  1155  1  0.29861600  0.60586900  0.72440700  1
  H  1157  1  0.36505300  0.64254300  0.82035700  1
  H  1163  1  0.81028600  0.91231300  0.24257800  1
  H  1164  1  0.79954100  0.91860800  0.27945200  1
  H  1166  1  0.84944100  0.85891300  0.29436800  1
  H  1168  1  0.89248200  0.84971500  0.25663700  1
  H  1170  1  0.79862700  0.90604800  0.31562400  1
  H  1172  1  0.86502900  0.86935500  0.21967600  1
  H  1178  1  0.55854800  0.53225000  0.36366600  1
  H  1179  1  0.54701400  0.49533200  0.35800300  1
  H  1181  1  0.59770600  0.48106600  0.41763500  1
  H  1183  1  0.64157200  0.51871800  0.42606500  1
  H  1185  1  0.54401600  0.45942400  0.37186600  1
  H  1187  1  0.61412500  0.55561700  0.40613600  1
  H  1193  1  0.05823600  0.97966800  0.67630600  1
  H  1194  1  0.04666700  0.01658100  0.68195800  1
  H  1196  1  0.09800300  0.03087900  0.62250000  1
  H  1198  1  0.14193500  0.99322700  0.61419800  1
  H  1200  1  0.04396900  0.05250900  0.66817000  1
  H  1202  1  0.11420000  0.95631700  0.63396400  1
  H  1208  1  0.95464000  0.97898100  0.36414700  1
  H  1209  1  0.96613300  0.01584300  0.35819600  1
  H  1211  1  0.91267800  0.03071100  0.41694300  1
  H  1213  1  0.86871900  0.99308400  0.42518000  1
  H  1215  1  0.96685700  0.05198400  0.37099200  1
  H  1217  1  0.89722200  0.95608400  0.40616500  1
  H  1223  1  0.45485100  0.53295000  0.67583800  1
  H  1224  1  0.46636300  0.49608900  0.68178200  1
  H  1226  1  0.41247300  0.48120300  0.62316000  1
  H  1228  1  0.36847900  0.51884100  0.61500600  1
  H  1230  1  0.46690400  0.45993900  0.66903100  1
  H  1232  1  0.39719100  0.55584100  0.63389900  1
  C  1  1  0.87665100  0.13413700  0.42580300  1
  C  2  1  0.84114200  0.12620400  0.43392800  1
  C  3  1  0.81345400  0.12351900  0.39636200  1
  C  4  1  0.84846000  0.13145400  0.38763400  1
  C  5  1  0.85146400  0.13360300  0.36501400  1
  C  6  1  0.82130500  0.12749400  0.35111400  1
  C  7  1  0.78664400  0.11980200  0.36022800  1
  C  8  1  0.78279500  0.11787200  0.38249900  1
  C  9  1  0.83733600  0.12242000  0.45609700  1
  C  10  1  0.86854200  0.12568000  0.47011300  1
  C  11  1  0.90444800  0.13335700  0.46255600  1
  C  12  1  0.90775000  0.13762600  0.44043800  1
  C  13  1  0.91463400  0.12260300  0.39558100  1
  C  14  1  0.94983300  0.13096000  0.38751700  1
  C  15  1  0.92368200  0.16882900  0.39038100  1
  C  16  1  0.88810100  0.16119200  0.39868700  1
  C  17  1  0.92856100  0.19095700  0.38683300  1
  C  18  1  0.89823800  0.20542100  0.39055700  1
  C  19  1  0.86181100  0.19834400  0.39800200  1
  C  20  1  0.85790200  0.17630300  0.40264900  1
  C  21  1  0.91083100  0.09998300  0.39754500  1
  C  22  1  0.94042000  0.08571400  0.39131400  1
  C  23  1  0.97539300  0.09458000  0.38368900  1
  C  24  1  0.97997400  0.11680300  0.38180000  1
  C  37  1  0.88196900  0.13743500  0.40200800  1
  C  38  1  0.95621400  0.15428500  0.38487200  1
  C  41  1  0.80792400  0.12089500  0.41976800  1
  C  48  1  0.37664200  0.37779000  0.61424100  1
  C  49  1  0.34113600  0.38572500  0.60611600  1
  C  50  1  0.31344300  0.38840800  0.64368000  1
  C  51  1  0.34844900  0.38047000  0.65241100  1
  C  52  1  0.35145000  0.37831900  0.67502800  1
  C  53  1  0.32129400  0.38443200  0.68892800  1
  C  54  1  0.28663700  0.39213400  0.67981400  1
  C  55  1  0.28278600  0.39405900  0.65754300  1
  C  56  1  0.33733100  0.38950900  0.58394700  1
  C  57  1  0.36853700  0.38625000  0.56993200  1
  C  58  1  0.40444500  0.37857300  0.57748900  1
  C  59  1  0.40774100  0.37430100  0.59960800  1
  C  60  1  0.41462600  0.38931900  0.64446400  1
  C  61  1  0.44982200  0.38096100  0.65252700  1
  C  62  1  0.42366900  0.34309500  0.64966100  1
  C  63  1  0.38809000  0.35073100  0.64135600  1
  C  64  1  0.42855000  0.32096500  0.65320600  1
  C  65  1  0.39822400  0.30650200  0.64948200  1
  C  66  1  0.36179800  0.31357900  0.64203800  1
  C  67  1  0.35789400  0.33562000  0.63738700  1
  C  68  1  0.41082000  0.41194000  0.64250900  1
  C  69  1  0.44042000  0.42620700  0.64872700  1
  C  70  1  0.47538800  0.41733900  0.65635600  1
  C  71  1  0.47996600  0.39511600  0.65824500  1
  C  84  1  0.38195800  0.37448900  0.63803600  1
  C  85  1  0.45620600  0.35763600  0.65516900  1
  C  88  1  0.30791900  0.39103300  0.62027500  1
  C  95  1  0.12857200  0.85121200  0.89827900  1
  C  96  1  0.09302700  0.84329900  0.89017500  1
  C  97  1  0.06583400  0.88095100  0.88782200  1
  C  98  1  0.10093000  0.88950900  0.89582400  1
  C  99  1  0.10424900  0.91212500  0.89790400  1
  C  100  1  0.07431400  0.92619400  0.89177400  1
  C  101  1  0.03944900  0.91716300  0.88420800  1
  C  102  1  0.03530600  0.89492100  0.88227000  1
  C  103  1  0.08888600  0.82118900  0.88618000  1
  C  104  1  0.11979400  0.80699400  0.88946100  1
  C  105  1  0.15570700  0.81432300  0.89733300  1
  C  106  1  0.15937000  0.83639000  0.90177100  1
  C  107  1  0.16742700  0.88142900  0.88752900  1
  C  108  1  0.20240400  0.88932000  0.89634900  1
  C  109  1  0.17514600  0.88585500  0.93388300  1
  C  110  1  0.13961900  0.87792400  0.92577900  1
  C  111  1  0.17957900  0.88887900  0.95611600  1
  C  112  1  0.14886800  0.88497800  0.97026300  1
  C  113  1  0.11248200  0.87793800  0.96274000  1
  C  114  1  0.10898600  0.87380500  0.94057700  1
  C  115  1  0.16428300  0.87989700  0.86485300  1
  C  116  1  0.19457700  0.88629600  0.85105800  1
  C  117  1  0.22882300  0.89421300  0.86031300  1
  C  118  1  0.23284200  0.89553000  0.88259800  1
  C  131  1  0.13414500  0.87494900  0.90192100  1
  C  132  1  0.20814600  0.89152500  0.91975600  1
  C  135  1  0.05999300  0.85760600  0.88499700  1
  C  142  1  0.62856500  0.66070800  0.14176300  1
  C  143  1  0.59303000  0.66861700  0.14988500  1
  C  144  1  0.56583500  0.63096500  0.15223600  1
  C  145  1  0.60091800  0.62240900  0.14421300  1
  C  146  1  0.60423200  0.59979500  0.14211800  1
  C  147  1  0.57430500  0.58572400  0.14825500  1
  C  148  1  0.53945500  0.59475000  0.15584500  1
  C  149  1  0.53531700  0.61699200  0.15779700  1
  C  150  1  0.58889200  0.69072800  0.15388000  1
  C  151  1  0.61981200  0.70492100  0.15061000  1
  C  152  1  0.65571100  0.69759500  0.14271300  1
  C  153  1  0.65936300  0.67552800  0.13827900  1
  C  154  1  0.66741300  0.63048600  0.15250300  1
  C  155  1  0.70239000  0.62259400  0.14368000  1
  C  156  1  0.67512500  0.62607200  0.10614900  1
  C  157  1  0.63960200  0.63400400  0.11425700  1
  C  158  1  0.67955600  0.62305900  0.08391500  1
  C  159  1  0.64883900  0.62695400  0.06977100  1
  C  160  1  0.61245300  0.63399300  0.07729800  1
  C  161  1  0.60896300  0.63812600  0.09946100  1
  C  162  1  0.66427400  0.63201200  0.17518000  1
  C  163  1  0.69458800  0.62563500  0.18897300  1
  C  164  1  0.72882100  0.61770600  0.17971600  1
  C  165  1  0.73282300  0.61637700  0.15742900  1
  C  178  1  0.63413300  0.63697100  0.13811600  1
  C  179  1  0.70812500  0.62039600  0.12027300  1
  C  182  1  0.56000700  0.65430800  0.15507600  1
  C  189  1  0.63911600  0.37817300  0.42562100  1
  C  190  1  0.67473200  0.38645200  0.43322700  1
  C  191  1  0.70086500  0.38908900  0.39534600  1
  C  192  1  0.66560800  0.38103900  0.38704700  1
  C  193  1  0.66171900  0.37896900  0.36445400  1
  C  194  1  0.69131600  0.38506500  0.35014800  1
  C  195  1  0.72635300  0.39269500  0.35893000  1
  C  196  1  0.73100300  0.39468800  0.38114000  1
  C  197  1  0.67963100  0.39005700  0.45534800  1
  C  198  1  0.64931300  0.38637000  0.46982900  1
  C  199  1  0.61289000  0.37890500  0.46277000  1
  C  200  1  0.60894000  0.37424200  0.44074500  1
  C  201  1  0.59946300  0.38920600  0.39590400  1
  C  202  1  0.56416500  0.38046900  0.38839600  1
  C  203  1  0.59169900  0.34286200  0.39105900  1
  C  204  1  0.62742200  0.35094700  0.39873200  1
  C  205  1  0.58765100  0.32068300  0.38741000  1
  C  206  1  0.61877300  0.30659800  0.39061300  1
  C  207  1  0.65488600  0.31409200  0.39806100  1
  C  208  1  0.65844000  0.33623800  0.40216300  1
  C  209  1  0.60270400  0.41186000  0.39768400  1
  C  210  1  0.57245000  0.42582400  0.39177800  1
  C  211  1  0.53742100  0.41661300  0.38465900  1
  C  212  1  0.53338200  0.39433200  0.38299800  1
  C  225  1  0.63290900  0.37476200  0.40189500  1
  C  226  1  0.55842400  0.35705700  0.38596900  1
  C  229  1  0.70728000  0.39185400  0.41865400  1
  C  236  1  0.13909900  0.13376000  0.61443600  1
  C  237  1  0.17471800  0.12548600  0.60682500  1
  C  238  1  0.20085800  0.12284600  0.64470400  1
  C  239  1  0.16560200  0.13089100  0.65300600  1
  C  240  1  0.16172000  0.13296100  0.67560200  1
  C  241  1  0.19132200  0.12686100  0.68990400  1
  C  242  1  0.22635600  0.11923500  0.68111600  1
  C  243  1  0.23100200  0.11724600  0.65890800  1
  C  244  1  0.17961800  0.12189100  0.58470500  1
  C  245  1  0.14929200  0.12556900  0.57022600  1
  C  246  1  0.11286800  0.13303000  0.57728700  1
  C  247  1  0.10892000  0.13769300  0.59931400  1
  C  248  1  0.09945100  0.12272500  0.64415500  1
  C  249  1  0.06415200  0.13146300  0.65166000  1
  C  250  1  0.09168400  0.16907000  0.64900100  1
  C  251  1  0.12740600  0.16098300  0.64132900  1
  C  252  1  0.08763600  0.19124600  0.65265200  1
  C  253  1  0.11876700  0.20532900  0.64946000  1
  C  254  1  0.15485800  0.19784600  0.64197200  1
  C  255  1  0.15842100  0.17569500  0.63789100  1
  C  256  1  0.10269200  0.10007100  0.64237500  1
  C  257  1  0.07243400  0.08610800  0.64827600  1
  C  258  1  0.03740200  0.09531900  0.65539000  1
  C  259  1  0.03336500  0.11760000  0.65705400  1
  C  272  1  0.13289700  0.13716900  0.63816200  1
  C  273  1  0.05840700  0.15487400  0.65408600  1
  C  276  1  0.20727100  0.12008500  0.62139500  1
  C  283  1  0.38717300  0.66105300  0.89791000  1
  C  284  1  0.42259800  0.66851500  0.88924800  1
  C  285  1  0.44850800  0.63062200  0.88684700  1
  C  286  1  0.41348300  0.62243500  0.89532400  1
  C  287  1  0.40965700  0.59986000  0.89764200  1
  C  288  1  0.43905700  0.58550300  0.89135400  1
  C  289  1  0.47390100  0.59420000  0.88337600  1
  C  290  1  0.47849900  0.61637500  0.88112700  1
  C  291  1  0.42759000  0.69057800  0.88537000  1
  C  292  1  0.39750900  0.70516200  0.88916700  1
  C  293  1  0.36124200  0.69825300  0.89698000  1
  C  294  1  0.35721700  0.67628900  0.90191300  1
  C  295  1  0.34697000  0.63121100  0.88776000  1
  C  296  1  0.31194700  0.62386300  0.89698000  1
  C  297  1  0.34063300  0.62720300  0.93421700  1
  C  298  1  0.37621100  0.63456900  0.92565100  1
  C  299  1  0.33714300  0.62398600  0.95648500  1
  C  300  1  0.36870800  0.62728600  0.97022000  1
  C  301  1  0.40467700  0.63445800  0.96227400  1
  C  302  1  0.40770400  0.63811600  0.94002400  1
  C  303  1  0.34949900  0.63250100  0.86505100  1
  C  304  1  0.31858000  0.62634700  0.85158100  1
  C  305  1  0.28428700  0.61895900  0.86121500  1
  C  306  1  0.28086000  0.61791900  0.88355300  1
  C  319  1  0.38097400  0.63737800  0.90173600  1
  C  320  1  0.30688600  0.62192500  0.92046700  1
  C  323  1  0.45493500  0.65387100  0.88374800  1
  C  330  1  0.88717800  0.85087000  0.14212400  1
  C  331  1  0.92260000  0.84340500  0.15078800  1
  C  332  1  0.94851600  0.88129800  0.15319600  1
  C  333  1  0.91349400  0.88948600  0.14471700  1
  C  334  1  0.90967100  0.91206100  0.14239800  1
  C  335  1  0.93907100  0.92641600  0.14868800  1
  C  336  1  0.97390600  0.91771800  0.15667600  1
  C  337  1  0.97850100  0.89554300  0.15892300  1
  C  338  1  0.92758600  0.82134100  0.15467100  1
  C  339  1  0.89750300  0.80675900  0.15087200  1
  C  340  1  0.86123600  0.81367200  0.14305600  1
  C  341  1  0.85721900  0.83563600  0.13812000  1
  C  342  1  0.84697800  0.88071100  0.15227700  1
  C  343  1  0.81195800  0.88806100  0.14305500  1
  C  344  1  0.84065300  0.88472600  0.10582000  1
  C  345  1  0.87622800  0.87735700  0.11438600  1
  C  346  1  0.83716300  0.88794500  0.08355200  1
  C  347  1  0.86873300  0.88465100  0.06981700  1
  C  348  1  0.90470500  0.87749200  0.07776900  1
  C  349  1  0.90772300  0.87381500  0.10001600  1
  C  350  1  0.84950400  0.87941700  0.17498500  1
  C  351  1  0.81858800  0.88557900  0.18845600  1
  C  352  1  0.78430000  0.89297100  0.17881900  1
  C  353  1  0.78087100  0.89400900  0.15648100  1
  C  366  1  0.88098500  0.87454500  0.13830100  1
  C  367  1  0.80690300  0.89000200  0.11956900  1
  C  370  1  0.95493800  0.85804900  0.15629600  1
  C  377  1  0.13342700  0.87799400  0.61540600  1
  C  378  1  0.16890700  0.88612700  0.60743600  1
  C  379  1  0.19631000  0.88853400  0.64504600  1
  C  380  1  0.16128400  0.88052300  0.65367700  1
  C  381  1  0.15811200  0.87846000  0.67630800  1
  C  382  1  0.18813400  0.88459600  0.69032600  1
  C  383  1  0.22292600  0.89216700  0.68120900  1
  C  384  1  0.22691600  0.89410300  0.65895700  1
  C  385  1  0.17291300  0.89012500  0.58531800  1
  C  386  1  0.14192000  0.88684900  0.57117700  1
  C  387  1  0.10606500  0.87892800  0.57854800  1
  C  388  1  0.10255100  0.87448400  0.60062900  1
  C  389  1  0.09474500  0.88876000  0.64567900  1
  C  390  1  0.05984500  0.87990500  0.65363400  1
  C  391  1  0.08722800  0.84238500  0.65019000  1
  C  392  1  0.12268800  0.85050400  0.64218300  1
  C  393  1  0.08287800  0.82015400  0.65326500  1
  C  394  1  0.11361000  0.80602300  0.64935400  1
  C  395  1  0.14996300  0.81354500  0.64225700  1
  C  396  1  0.15335700  0.83571200  0.63806800  1
  C  397  1  0.09777500  0.91144600  0.64410700  1
  C  398  1  0.06742300  0.92521600  0.65049300  1
  C  399  1  0.03326500  0.91591700  0.65847500  1
  C  400  1  0.02937100  0.89362700  0.65985500  1
  C  413  1  0.12802600  0.87437400  0.63916400  1
  C  414  1  0.05420700  0.85649300  0.65588000  1
  C  417  1  0.20200400  0.89134100  0.62168700  1
  C  424  1  0.63342900  0.63393200  0.42462400  1
  C  425  1  0.66890400  0.62579400  0.43259400  1
  C  426  1  0.69631000  0.62338800  0.39498400  1
  C  427  1  0.66128700  0.63140500  0.38635200  1
  C  428  1  0.65811900  0.63347000  0.36372200  1
  C  429  1  0.68813800  0.62733100  0.34970400  1
  C  430  1  0.72292700  0.61975400  0.35882100  1
  C  431  1  0.72691700  0.61782000  0.38107300  1
  C  432  1  0.67290600  0.62179300  0.45471200  1
  C  433  1  0.64191400  0.62507200  0.46885100  1
  C  434  1  0.60606100  0.63299800  0.46148200  1
  C  435  1  0.60255300  0.63744300  0.43940100  1
  C  436  1  0.59474900  0.62317000  0.39435000  1
  C  437  1  0.55985300  0.63202300  0.38639100  1
  C  438  1  0.58723700  0.66954400  0.38983700  1
  C  439  1  0.62269400  0.66142400  0.39784800  1
  C  440  1  0.58288700  0.69177300  0.38676100  1
  C  441  1  0.61361900  0.70590500  0.39067700  1
  C  442  1  0.64996700  0.69838200  0.39778100  1
  C  443  1  0.65335900  0.67621500  0.40197300  1
  C  444  1  0.59777600  0.60048200  0.39592300  1
  C  445  1  0.56742600  0.58671100  0.38953300  1
  C  446  1  0.53327400  0.59601200  0.38154600  1
  C  447  1  0.52938200  0.61830200  0.38016500  1
  C  460  1  0.62803000  0.63755400  0.40086600  1
  C  461  1  0.55421600  0.65543500  0.38414200  1
  C  464  1  0.70200200  0.62057800  0.41834300  1
  C  471  1  0.88712900  0.16135400  0.14176600  1
  C  472  1  0.92286300  0.16973800  0.14910700  1
  C  473  1  0.95129700  0.13239700  0.15176200  1
  C  474  1  0.91615600  0.12335900  0.14435300  1
  C  475  1  0.91335800  0.10067800  0.14284100  1
  C  476  1  0.94417000  0.08706500  0.14884200  1
  C  477  1  0.97861100  0.09651000  0.15626100  1
  C  478  1  0.98229200  0.11882000  0.15750200  1
  C  479  1  0.92661400  0.19196100  0.15255300  1
  C  480  1  0.89519400  0.20584100  0.14943100  1
  C  481  1  0.85909400  0.19807300  0.14227500  1
  C  482  1  0.85577800  0.17587200  0.13843400  1
  C  483  1  0.84976200  0.13100500  0.15358600  1
  C  484  1  0.81392600  0.12356900  0.14542300  1
  C  485  1  0.83941700  0.12623100  0.10744500  1
  C  486  1  0.87543800  0.13412600  0.11489200  1
  C  487  1  0.83389600  0.12285800  0.08533400  1
  C  488  1  0.86394400  0.12645100  0.07067300  1
  C  489  1  0.90068000  0.13361000  0.07753800  1
  C  490  1  0.90530100  0.13802700  0.09957500  1
  C  491  1  0.85455100  0.13216900  0.17619100  1
  C  492  1  0.82479200  0.12630800  0.19046400  1
  C  493  1  0.78937800  0.11910600  0.18193100  1
  C  494  1  0.78394100  0.11791700  0.15972700  1
  C  507  1  0.88213700  0.13750000  0.13859100  1
  C  508  1  0.80689700  0.12117100  0.12213900  1
  C  511  1  0.95655500  0.15583600  0.15406300  1
  C  518  1  0.38716700  0.35057300  0.89829700  1
  C  519  1  0.42289900  0.34218600  0.89095600  1
  C  520  1  0.45133300  0.37952600  0.88828800  1
  C  521  1  0.41618800  0.38856700  0.89569800  1
  C  522  1  0.41339300  0.41124700  0.89720700  1
  C  523  1  0.44420800  0.42485900  0.89120500  1
  C  524  1  0.47864700  0.41541300  0.88378300  1
  C  525  1  0.48232400  0.39310200  0.88254500  1
  C  526  1  0.42665500  0.31996000  0.88752600  1
  C  527  1  0.39522300  0.30608500  0.89063700  1
  C  528  1  0.35912700  0.31385200  0.89780100  1
  C  529  1  0.35581300  0.33605500  0.90162400  1
  C  530  1  0.34979700  0.38091600  0.88646600  1
  C  531  1  0.31396100  0.38835700  0.89462400  1
  C  532  1  0.33944400  0.38570200  0.93260500  1
  C  533  1  0.37546800  0.37780700  0.92516100  1
  C  534  1  0.33391400  0.38907500  0.95471500  1
  C  535  1  0.36396500  0.38549100  0.96937800  1
  C  536  1  0.40070100  0.37833100  0.96251500  1
  C  537  1  0.40532800  0.37390900  0.94048100  1
  C  538  1  0.35457800  0.37973600  0.86385900  1
  C  539  1  0.32480400  0.38555900  0.84958100  1
  C  540  1  0.28940800  0.39278700  0.85811400  1
  C  541  1  0.28398500  0.39401300  0.88031800  1
  C  554  1  0.38217200  0.37442700  0.90146300  1
  C  555  1  0.30693000  0.39076300  0.91790600  1
  C  558  1  0.45658800  0.35608600  0.88599300  1
  C  565  1  0.37493500  0.63352500  0.61516400  1
  C  566  1  0.33955300  0.62479900  0.60771400  1
  C  567  1  0.31367800  0.62233100  0.64562400  1
  C  568  1  0.34865400  0.63086800  0.65380800  1
  C  569  1  0.35249400  0.63316400  0.67638900  1
  C  570  1  0.32315800  0.62680900  0.69076000  1
  C  571  1  0.28836600  0.61876400  0.68205900  1
  C  572  1  0.28375100  0.61653500  0.65988000  1
  C  573  1  0.33458500  0.62090000  0.58565200  1
  C  574  1  0.36464200  0.62473500  0.57106000  1
  C  575  1  0.40088900  0.63260100  0.57795200  1
  C  576  1  0.40487400  0.63756000  0.59991900  1
  C  577  1  0.41515200  0.62338800  0.64499500  1
  C  578  1  0.45011400  0.63265900  0.65236400  1
  C  579  1  0.42122900  0.66987000  0.64908000  1
  C  580  1  0.38570300  0.66127400  0.64167700  1
  C  581  1  0.42461200  0.69213600  0.65233900  1
  C  582  1  0.39300700  0.70584400  0.64903000  1
  C  583  1  0.35705500  0.69787700  0.64184800  1
  C  584  1  0.35414900  0.67562100  0.63814200  1
  C  585  1  0.41275900  0.60066900  0.64366400  1
  C  586  1  0.44378000  0.58723400  0.64976000  1
  C  587  1  0.47799800  0.59693000  0.65717600  1
  C  588  1  0.48127700  0.61927300  0.65828100  1
  C  601  1  0.38109600  0.63734300  0.63884800  1
  C  602  1  0.45503400  0.65615300  0.65435100  1
  C  605  1  0.30725900  0.61923700  0.62237100  1
  C  612  1  0.87494000  0.87839600  0.42487000  1
  C  613  1  0.83955600  0.88711700  0.43232300  1
  C  614  1  0.81368300  0.88958200  0.39440900  1
  C  615  1  0.84866200  0.88105000  0.38622800  1
  C  616  1  0.85250800  0.87875300  0.36364700  1
  C  617  1  0.82317400  0.88510900  0.34927300  1
  C  618  1  0.78837700  0.89314800  0.35797400  1
  C  619  1  0.78375600  0.89537600  0.38015100  1
  C  620  1  0.83457300  0.89100700  0.45438400  1
  C  621  1  0.86463600  0.88718300  0.46897400  1
  C  622  1  0.90088800  0.87932300  0.46208600  1
  C  623  1  0.90487600  0.87436300  0.44011800  1
  C  624  1  0.91516300  0.88853600  0.39504500  1
  C  625  1  0.95012800  0.87926600  0.38768000  1
  C  626  1  0.92124900  0.84205500  0.39096300  1
  C  627  1  0.88572000  0.85064900  0.39835900  1
  C  628  1  0.92463700  0.81978800  0.38770200  1
  C  629  1  0.89302300  0.80608200  0.39099600  1
  C  630  1  0.85708900  0.81403700  0.39821200  1
  C  631  1  0.85417200  0.83629700  0.40189900  1
  C  632  1  0.91276100  0.91125600  0.39637200  1
  C  633  1  0.94377600  0.92469100  0.39026600  1
  C  634  1  0.97800600  0.91499700  0.38286500  1
  C  635  1  0.98129100  0.89265400  0.38176400  1
  C  648  1  0.88110700  0.87457800  0.40119000  1
  C  649  1  0.95505600  0.85577200  0.38569600  1
  C  652  1  0.80725900  0.89267500  0.41766200  1
  C  659  1  0.62504900  0.35051900  0.14270900  1
  C  660  1  0.58990800  0.34247200  0.15121400  1
  C  661  1  0.56259700  0.37997500  0.15451800  1
  C  662  1  0.59713300  0.38874700  0.14599700  1
  C  663  1  0.60003900  0.41140900  0.14414900  1
  C  664  1  0.56997000  0.42521000  0.15085300  1
  C  665  1  0.53618000  0.41600100  0.15938500  1
  C  666  1  0.53236900  0.39373300  0.16101200  1
  C  667  1  0.58568000  0.32028600  0.15461700  1
  C  668  1  0.61627000  0.30612200  0.15053700  1
  C  669  1  0.65234000  0.31359000  0.14296500  1
  C  670  1  0.65557500  0.33569400  0.13844500  1
  C  671  1  0.66411500  0.38074400  0.15323700  1
  C  672  1  0.69870900  0.38870900  0.14402300  1
  C  673  1  0.66985900  0.38557000  0.10684100  1
  C  674  1  0.63466500  0.37761600  0.11537200  1
  C  675  1  0.67307100  0.38921500  0.08462900  1
  C  676  1  0.64155200  0.38576900  0.07091000  1
  C  677  1  0.60595100  0.37801500  0.07880700  1
  C  678  1  0.60321600  0.37394000  0.10100000  1
  C  679  1  0.66185700  0.37918300  0.17594200  1
  C  680  1  0.69258900  0.38568900  0.18938500  1
  C  681  1  0.72646300  0.39362900  0.17974600  1
  C  682  1  0.72964900  0.39493600  0.15742000  1
  C  695  1  0.63023200  0.37433800  0.13925600  1
  C  696  1  0.70349800  0.39105200  0.12056900  1
  C  699  1  0.55707800  0.35660500  0.15711600  1
  C  706  1  0.12507700  0.16142200  0.89734800  1
  C  707  1  0.08994200  0.16946800  0.88883500  1
  C  708  1  0.06263200  0.13196500  0.88553300  1
  C  709  1  0.09716800  0.12319400  0.89405500  1
  C  710  1  0.10008000  0.10053200  0.89590200  1
  C  711  1  0.07002700  0.08673000  0.88918000  1
  C  712  1  0.03622100  0.09593700  0.88066700  1
  C  713  1  0.03240400  0.11820600  0.87904000  1
  C  714  1  0.08571500  0.19165500  0.88543200  1
  C  715  1  0.11631300  0.20581700  0.88950400  1
  C  716  1  0.15237400  0.19834700  0.89708600  1
  C  717  1  0.15560400  0.17624600  0.90161500  1
  C  718  1  0.16415100  0.13119800  0.88682700  1
  C  719  1  0.19874100  0.12323500  0.89604400  1
  C  720  1  0.16986800  0.12637000  0.93322300  1
  C  721  1  0.13468100  0.13432500  0.92468600  1
  C  722  1  0.17306600  0.12272200  0.95543700  1
  C  723  1  0.14153800  0.12616400  0.96915000  1
  C  724  1  0.10593600  0.13390800  0.96124200  1
  C  725  1  0.10322200  0.13800000  0.93905300  1
  C  726  1  0.16190400  0.13276100  0.86412100  1
  C  727  1  0.19263500  0.12624700  0.85068100  1
  C  728  1  0.22650800  0.11831100  0.86032500  1
  C  729  1  0.22968800  0.11701000  0.88265200  1
  C  742  1  0.13026200  0.13760400  0.90080200  1
  C  743  1  0.20351500  0.12088800  0.91950100  1
  C  746  1  0.05711400  0.15533400  0.88293200  1
  C  753  1  0.79071000  0.24239900  0.39556400  1
  C  754  1  0.78490800  0.26131200  0.38347700  1
  C  755  1  0.75243400  0.27457900  0.38664800  1
  C  756  1  0.72413100  0.26966400  0.40222100  1
  C  757  1  0.73016700  0.25098700  0.41475900  1
  C  760  1  0.76273000  0.23766700  0.41139000  1
  C  764  1  0.82294600  0.22937300  0.39132100  1
  C  766  1  0.68960800  0.28136500  0.40363600  1
  C  768  1  0.29069900  0.26952600  0.64447900  1
  C  769  1  0.28490200  0.25061000  0.65656200  1
  C  770  1  0.25242900  0.23734300  0.65339300  1
  C  771  1  0.22411900  0.24226100  0.63782400  1
  C  772  1  0.23015200  0.26094000  0.62528600  1
  C  775  1  0.26271600  0.27426000  0.62865500  1
  C  779  1  0.32292900  0.28255400  0.64872300  1
  C  781  1  0.18959400  0.23056400  0.63641100  1
  C  783  1  0.04083500  0.88020200  0.00642300  1
  C  784  1  0.03433600  0.89261100  0.02505300  1
  C  785  1  0.00203600  0.88918600  0.03837300  1
  C  786  1  0.97465800  0.87301800  0.03380100  1
  C  787  1  0.98141800  0.86016200  0.01541900  1
  C  790  1  0.01379700  0.86379000  0.00203900  1
  C  794  1  0.07295200  0.88462400  0.99339400  1
  C  796  1  0.94015900  0.87133900  0.04546400  1
  C  798  1  0.54079800  0.63172600  0.03362000  1
  C  799  1  0.53427000  0.61929900  0.01500500  1
  C  800  1  0.50198700  0.62273700  0.00167500  1
  C  801  1  0.47463300  0.63892100  0.00623500  1
  C  802  1  0.48142200  0.65179200  0.02460200  1
  C  805  1  0.51379100  0.64815800  0.03798900  1
  C  809  1  0.57291000  0.62730100  0.04665300  1
  C  811  1  0.44014000  0.64061000  0.99457300  1
  C  813  1  0.22145400  0.76970200  0.64452200  1
  C  814  1  0.22772800  0.75103900  0.65692300  1
  C  815  1  0.25983600  0.73756800  0.65348600  1
  C  816  1  0.28726900  0.74200500  0.63730600  1
  C  817  1  0.28072500  0.76042300  0.62446400  1
  C  820  1  0.24854100  0.77395600  0.62810100  1
  C  824  1  0.18950000  0.78287500  0.64896000  1
  C  826  1  0.32166200  0.73021400  0.63564900  1
  C  828  1  0.72146300  0.74222800  0.39552200  1
  C  829  1  0.72772500  0.76090100  0.38313500  1
  C  830  1  0.75982800  0.77437300  0.38657800  1
  C  831  1  0.78728900  0.76991700  0.40273800  1
  C  832  1  0.78076400  0.75148400  0.41556500  1
  C  835  1  0.74856500  0.73796100  0.41193200  1
  C  839  1  0.68950400  0.72905800  0.39108400  1
  C  841  1  0.82168400  0.78170500  0.40439600  1
  C  843  1  0.97053500  0.13148900  0.03297700  1
  C  844  1  0.97655700  0.11916400  0.01424600  1
  C  845  1  0.00869600  0.12253800  0.00079500  1
  C  846  1  0.03636400  0.13856700  0.00533200  1
  C  847  1  0.03008900  0.15132600  0.02382900  1
  C  850  1  0.99786600  0.14776000  0.03733400  1
  C  854  1  0.93861100  0.12712200  0.04616200  1
  C  856  1  0.07077800  0.14011100  0.99359000  1
  C  858  1  0.47055000  0.38045000  0.00707800  1
  C  859  1  0.47656000  0.39276200  0.02581800  1
  C  860  1  0.50872700  0.38940400  0.03925600  1
  C  861  1  0.53640800  0.37338700  0.03470200  1
  C  862  1  0.53012900  0.36062400  0.01620800  1
  C  865  1  0.49790400  0.36419200  0.00270700  1
  C  869  1  0.43861500  0.38480900  0.99390300  1
  C  871  1  0.57080000  0.37182000  0.04646100  1
  C  873  1  0.29053400  0.74237000  0.89459500  1
  C  874  1  0.28470000  0.76122700  0.88243800  1
  C  875  1  0.25239800  0.77457400  0.88572300  1
  C  876  1  0.22436000  0.76978100  0.90147700  1
  C  877  1  0.23044400  0.75117200  0.91409500  1
  C  880  1  0.26283900  0.73776900  0.91061200  1
  C  884  1  0.32248300  0.72922700  0.89019300  1
  C  886  1  0.18996500  0.78153300  0.90296100  1
  C  888  1  0.79051600  0.76956100  0.14545400  1
  C  889  1  0.78467000  0.75071200  0.15762200  1
  C  890  1  0.75237100  0.73736300  0.15433900  1
  C  891  1  0.72435100  0.74214400  0.13857200  1
  C  892  1  0.73044800  0.76074300  0.12594100  1
  C  895  1  0.76284000  0.77414700  0.12942300  1
  C  899  1  0.82246300  0.78270700  0.14985600  1
  C  901  1  0.68995800  0.73038800  0.13708400  1
  C  903  1  0.54151000  0.38114800  0.50665200  1
  C  904  1  0.53537000  0.39318800  0.52555800  1
  C  905  1  0.50258900  0.39002800  0.53858800  1
  C  906  1  0.47433200  0.37450800  0.53342800  1
  C  907  1  0.48070700  0.36200600  0.51476700  1
  C  910  1  0.51357100  0.36537200  0.50167900  1
  C  914  1  0.57402100  0.38538800  0.49385200  1
  C  916  1  0.43957000  0.37312000  0.54488800  1
  C  918  1  0.04149600  0.13078500  0.53340400  1
  C  919  1  0.03534600  0.11873300  0.51450700  1
  C  920  1  0.00258600  0.12190400  0.50146500  1
  C  921  1  0.97433100  0.13742700  0.50661800  1
  C  922  1  0.98071200  0.14993900  0.52527200  1
  C  925  1  0.01357000  0.14657200  0.53836400  1
  C  929  1  0.07399400  0.12654000  0.54621300  1
  C  931  1  0.93956900  0.13881600  0.49515800  1
  C  933  1  0.72398300  0.26993800  0.14526300  1
  C  934  1  0.73044500  0.25135000  0.15773900  1
  C  935  1  0.76252200  0.23789200  0.15422500  1
  C  936  1  0.78969400  0.24228200  0.13790000  1
  C  937  1  0.78293700  0.26060700  0.12497000  1
  C  940  1  0.75078200  0.27413000  0.12868400  1
  C  944  1  0.69219200  0.28315100  0.14983500  1
  C  946  1  0.82404000  0.23050400  0.13616200  1
  C  948  1  0.22404300  0.24198300  0.89478200  1
  C  949  1  0.23054200  0.26055900  0.88229300  1
  C  950  1  0.26260700  0.27402000  0.88582200  1
  C  951  1  0.28974700  0.26963800  0.90216600  1
  C  952  1  0.28296000  0.25132100  0.91510400  1
  C  955  1  0.25080200  0.23780400  0.91138500  1
  C  959  1  0.19225200  0.22877500  0.89020700  1
  C  961  1  0.32408400  0.28142300  0.90392600  1
  C  963  1  0.47145000  0.63028300  0.53369400  1
  C  964  1  0.47709800  0.61817300  0.51478600  1
  C  965  1  0.50927400  0.62147600  0.50134200  1
  C  966  1  0.53739200  0.63720900  0.50607300  1
  C  967  1  0.53148900  0.64977100  0.52474200  1
  C  970  1  0.49920900  0.64628200  0.53823500  1
  C  974  1  0.43961300  0.62585300  0.54693300  1
  C  976  1  0.57175500  0.63865900  0.49426800  1
  C  978  1  0.97144600  0.88163300  0.50634700  1
  C  979  1  0.97708300  0.89372900  0.52526400  1
  C  980  1  0.00928500  0.89044300  0.53869100  1
  C  981  1  0.03741800  0.87472700  0.53394200  1
  C  982  1  0.03151300  0.86215900  0.51527700  1
  C  985  1  0.99922300  0.86564800  0.50179000  1
  C  989  1  0.93959200  0.88605700  0.49311800  1
  C  991  1  0.07176400  0.87325400  0.54576400  1
  C  993  1  0.82071800  0.12237200  0.29302700  1
  C  994  1  0.82040800  0.10569400  0.27773900  1
  C  995  1  0.82020800  0.11003800  0.25566900  1
  C  996  1  0.82035000  0.13128900  0.24799300  1
  C  997  1  0.82200000  0.14811600  0.26316800  1
  C  1000  1  0.82212100  0.14362800  0.28530500  1
  C  1004  1  0.81604100  0.11751300  0.31466600  1
  C  1006  1  0.81353800  0.13538000  0.22646800  1
  C  1008  1  0.32073300  0.38956800  0.74701100  1
  C  1009  1  0.32063400  0.40625000  0.76229600  1
  C  1010  1  0.32039400  0.40190900  0.78436700  1
  C  1011  1  0.32027800  0.38065900  0.79204100  1
  C  1012  1  0.32173400  0.36382300  0.77687300  1
  C  1015  1  0.32190800  0.36830700  0.75473400  1
  C  1019  1  0.31607400  0.39442900  0.72537200  1
  C  1021  1  0.31338800  0.37659300  0.81356300  1
  C  1023  1  0.07422800  0.98454500  0.88704900  1
  C  1024  1  0.06527000  0.00001400  0.87130200  1
  C  1025  1  0.07182200  0.02191200  0.87483100  1
  C  1026  1  0.08751300  0.02939700  0.89433800  1
  C  1027  1  0.09730300  0.01395100  0.91007000  1
  C  1030  1  0.09030300  0.99196200  0.90649200  1
  C  1034  1  0.06571500  0.96305500  0.88315400  1
  C  1036  1  0.09385100  0.05119900  0.89765800  1
  C  1038  1  0.57428700  0.52738100  0.15296700  1
  C  1039  1  0.56591300  0.51193600  0.16883300  1
  C  1040  1  0.57240300  0.49003400  0.16527700  1
  C  1041  1  0.58742800  0.48252900  0.14561800  1
  C  1042  1  0.59662400  0.49795200  0.12975700  1
  C  1045  1  0.58968500  0.51994100  0.13336500  1
  C  1049  1  0.56577100  0.54886300  0.15688600  1
  C  1051  1  0.59368700  0.46072800  0.14226800  1
  C  1053  1  0.69054600  0.38919900  0.29168500  1
  C  1054  1  0.70105600  0.40435500  0.27592100  1
  C  1055  1  0.69399200  0.40068100  0.25409300  1
  C  1056  1  0.67617900  0.38160300  0.24695500  1
  C  1057  1  0.66487000  0.36647900  0.26269200  1
  C  1060  1  0.67241400  0.37018100  0.28461000  1
  C  1064  1  0.69949600  0.39322800  0.31311100  1
  C  1066  1  0.66917600  0.37816400  0.22522100  1
  C  1068  1  0.19060900  0.12272400  0.74837000  1
  C  1069  1  0.20135300  0.10762700  0.76414200  1
  C  1070  1  0.19428100  0.11129100  0.78597400  1
  C  1071  1  0.17621500  0.13029900  0.79310500  1
  C  1072  1  0.16467500  0.14536300  0.77735800  1
  C  1075  1  0.17221800  0.14166800  0.75544100  1
  C  1079  1  0.19952900  0.11869600  0.72693900  1
  C  1081  1  0.16918900  0.13372600  0.81483900  1
  C  1083  1  0.43864100  0.52707600  0.88708400  1
  C  1084  1  0.44967700  0.51135300  0.87199800  1
  C  1085  1  0.44343300  0.48947200  0.87579300  1
  C  1086  1  0.42592600  0.48225000  0.89492100  1
  C  1087  1  0.41408700  0.49793100  0.90997900  1
  C  1090  1  0.42082100  0.51990500  0.90615500  1
  C  1094  1  0.44667900  0.54857800  0.88288400  1
  C  1096  1  0.41963800  0.46047400  0.89844400  1
  C  1098  1  0.93864600  0.98484500  0.15296600  1
  C  1099  1  0.94976700  0.00057300  0.16803000  1
  C  1100  1  0.94349900  0.02245200  0.16424000  1
  C  1101  1  0.92588500  0.02967100  0.14514100  1
  C  1102  1  0.91397400  0.01398700  0.13010400  1
  C  1105  1  0.92073100  0.99201500  0.13392100  1
  C  1109  1  0.94670200  0.96334400  0.15715900  1
  C  1111  1  0.91958500  0.05144700  0.14162100  1
  C  1113  1  0.18908100  0.88915600  0.74875300  1
  C  1114  1  0.19996200  0.90444700  0.76431000  1
  C  1115  1  0.19366800  0.90089700  0.78623300  1
  C  1116  1  0.17628500  0.88181500  0.79367900  1
  C  1117  1  0.16461500  0.86655100  0.77815400  1
  C  1120  1  0.17137300  0.87013600  0.75613900  1
  C  1124  1  0.19725100  0.89307300  0.72721100  1
  C  1126  1  0.17006400  0.87849200  0.81550700  1
  C  1128  1  0.68907900  0.62277300  0.29127600  1
  C  1129  1  0.69987800  0.60746300  0.27572300  1
  C  1130  1  0.69359300  0.61101600  0.25380000  1
  C  1131  1  0.67630000  0.63012200  0.24635300  1
  C  1132  1  0.66469900  0.64540400  0.26187400  1
  C  1135  1  0.67145300  0.64181700  0.28388800  1
  C  1139  1  0.69724800  0.61885500  0.31281900  1
  C  1141  1  0.67009300  0.63345100  0.22452400  1
  C  1143  1  0.32355100  0.62247600  0.74922300  1
  C  1144  1  0.31242800  0.60738900  0.76493300  1
  C  1145  1  0.31864600  0.61115000  0.78682500  1
  C  1146  1  0.33622000  0.63024300  0.79408800  1
  C  1147  1  0.34811300  0.64531000  0.77842100  1
  C  1150  1  0.34140000  0.64152200  0.75643600  1
  C  1154  1  0.31554700  0.61830700  0.72770100  1
  C  1156  1  0.34256000  0.63373200  0.81587600  1
  C  1158  1  0.82358800  0.88944800  0.29081300  1
  C  1159  1  0.81251700  0.90454800  0.27510500  1
  C  1160  1  0.81872400  0.90078600  0.25321100  1
  C  1161  1  0.83623100  0.88167300  0.24594500  1
  C  1162  1  0.84806300  0.86659100  0.26161100  1
  C  1165  1  0.84135600  0.87038000  0.28359600  1
  C  1169  1  0.81557000  0.89361400  0.31233200  1
  C  1171  1  0.84255900  0.87818200  0.22415700  1
  C  1173  1  0.57140500  0.48429600  0.38718800  1
  C  1174  1  0.56035700  0.49982900  0.37190900  1
  C  1175  1  0.56705000  0.52174800  0.37530100  1
  C  1176  1  0.58500900  0.52922600  0.39420700  1
  C  1177  1  0.59684100  0.51371400  0.40945300  1
  C  1180  1  0.58968500  0.49170700  0.40603200  1
  C  1184  1  0.56273000  0.46276600  0.38348000  1
  C  1186  1  0.59160100  0.55105800  0.39739100  1
  C  1188  1  0.07135800  0.02763300  0.65285500  1
  C  1189  1  0.06014800  0.01209100  0.66809000  1
  C  1190  1  0.06686100  0.99017500  0.66470500  1
  C  1191  1  0.08501400  0.98270500  0.64585000  1
  C  1192  1  0.09701000  0.99822400  0.63065200  1
  C  1195  1  0.08984300  0.02023200  0.63406800  1
  C  1199  1  0.06269800  0.04916400  0.65656400  1
  C  1201  1  0.09163000  0.96087300  0.64267500  1
  C  1203  1  0.94040200  0.02719000  0.38691500  1
  C  1204  1  0.95224600  0.01149000  0.37198600  1
  C  1205  1  0.94558800  0.98959800  0.37555000  1
  C  1206  1  0.92682800  0.98230400  0.39428700  1
  C  1207  1  0.91423100  0.99797000  0.40918600  1
  C  1210  1  0.92137000  0.01995400  0.40560100  1
  C  1214  1  0.94886900  0.04871300  0.38297200  1
  C  1216  1  0.92004200  0.96050700  0.39758600  1
  C  1218  1  0.44041700  0.48473200  0.65312600  1
  C  1219  1  0.45237700  0.50043900  0.66802100  1
  C  1220  1  0.44570700  0.52233100  0.66446200  1
  C  1221  1  0.42680500  0.52961900  0.64576500  1
  C  1222  1  0.41410200  0.51394800  0.63090000  1
  C  1225  1  0.42125200  0.49196400  0.63448000  1
  C  1229  1  0.44889000  0.46320900  0.65706200  1
  C  1231  1  0.42002500  0.55141700  0.64246600  1
  N  44  1  0.83154000  0.21168000  0.40092300  1
  N  45  1  0.93599800  0.13429200  0.47510900  1
  N  46  1  0.82572100  0.13014200  0.33003800  1
  N  47  1  0.93449600  0.06461100  0.39344400  1
  N  91  1  0.33152900  0.30024500  0.63911800  1
  N  92  1  0.43599600  0.37764000  0.56493700  1
  N  93  1  0.32570100  0.38178400  0.71000400  1
  N  94  1  0.43449400  0.44731000  0.64660400  1
  N  138  1  0.08201300  0.87484400  0.97587200  1
  N  139  1  0.18695000  0.80157000  0.89828600  1
  N  140  1  0.07999300  0.94728800  0.89383200  1
  N  141  1  0.19283300  0.88637900  0.82975500  1
  N  185  1  0.58198500  0.63708900  0.06416800  1
  N  186  1  0.68694600  0.71035400  0.14176700  1
  N  187  1  0.57997600  0.56463000  0.14618100  1
  N  188  1  0.69284400  0.62554700  0.21027600  1
  N  232  1  0.68628600  0.30139800  0.39896200  1
  N  233  1  0.58256000  0.37600200  0.47604500  1
  N  234  1  0.68520100  0.38286800  0.32909100  1
  N  235  1  0.57804600  0.44696700  0.39367400  1
  N  279  1  0.18627100  0.21052800  0.64107900  1
  N  280  1  0.08254200  0.13593700  0.56401400  1
  N  281  1  0.18521700  0.12905500  0.71096300  1
  N  282  1  0.07802900  0.06496500  0.64637800  1
  N  326  1  0.43637800  0.63532500  0.97471500  1
  N  327  1  0.33121700  0.71168600  0.90001200  1
  N  328  1  0.43318600  0.56444800  0.89373300  1
  N  329  1  0.31986700  0.62601800  0.83026300  1
  N  373  1  0.93640300  0.87661500  0.06532300  1
  N  374  1  0.83120700  0.80024000  0.14002500  1
  N  375  1  0.93319100  0.94747100  0.14631900  1
  N  376  1  0.81987800  0.88591100  0.20977300  1
  N  420  1  0.18040500  0.80037100  0.63912600  1
  N  421  1  0.07477700  0.87795400  0.56580100  1
  N  422  1  0.18265500  0.88251000  0.71144800  1
  N  423  1  0.06895600  0.94653500  0.65048900  1
  N  467  1  0.68041200  0.71155700  0.40091100  1
  N  468  1  0.57477100  0.63398200  0.47422500  1
  N  469  1  0.68266100  0.62942100  0.32858200  1
  N  470  1  0.56896000  0.56539200  0.38954000  1
  N  514  1  0.93057800  0.13657800  0.06400200  1
  N  515  1  0.82756700  0.21064300  0.14147000  1
  N  516  1  0.94258700  0.06576800  0.14916100  1
  N  517  1  0.83131700  0.12532000  0.21143900  1
  N  561  1  0.43060200  0.37536800  0.97605300  1
  N  562  1  0.32761100  0.30127700  0.89860000  1
  N  563  1  0.44262500  0.44615500  0.89088600  1
  N  564  1  0.33135000  0.38653600  0.82860400  1
  N  608  1  0.32535400  0.71035600  0.64097100  1
  N  609  1  0.43088000  0.63567500  0.56447900  1
  N  610  1  0.32902900  0.62916700  0.71183000  1
  N  611  1  0.44272400  0.56589900  0.65000300  1
  N  655  1  0.82537700  0.80156700  0.39908600  1
  N  656  1  0.93087900  0.87625100  0.47555800  1
  N  657  1  0.82905400  0.88275600  0.32820500  1
  N  658  1  0.94272600  0.94602700  0.39003200  1
  N  702  1  0.57427000  0.37699400  0.06636300  1
  N  703  1  0.68267800  0.30040600  0.13972000  1
  N  704  1  0.57160200  0.44650000  0.15074800  1
  N  705  1  0.69156700  0.38587200  0.21069800  1
  N  749  1  0.07425600  0.13495200  0.97368500  1
  N  750  1  0.18271500  0.21152800  0.90033200  1
  N  751  1  0.07164900  0.06544000  0.88929600  1
  N  752  1  0.19161900  0.12606000  0.82936900  1
  O  762  1  0.70406000  0.24477300  0.42982700  1
  O  777  1  0.20403100  0.26716500  0.61023100  1
  O  792  1  0.95616700  0.84453100  0.00952800  1
  O  807  1  0.45620000  0.66744500  0.03047800  1
  O  822  1  0.30604100  0.76621300  0.60882600  1
  O  837  1  0.80609300  0.74568600  0.43119200  1
  O  852  1  0.05566700  0.16680100  0.02970900  1
  O  867  1  0.55571000  0.34515300  0.01032400  1
  O  882  1  0.20453000  0.74509300  0.92931900  1
  O  897  1  0.70454300  0.76681600  0.11071100  1
  O  912  1  0.45465800  0.34699900  0.50833500  1
  O  927  1  0.95467100  0.16495300  0.53169600  1
  O  942  1  0.80801400  0.26632200  0.10918900  1
  O  957  1  0.30799400  0.24562700  0.93091300  1
  O  972  1  0.55749500  0.66495900  0.53079300  1
  O  987  1  0.05752400  0.84697800  0.50921900  1
  O  1002  1  0.82096100  0.16896300  0.25697600  1
  O  1017  1  0.32038800  0.34298000  0.78306000  1
  O  1032  1  0.11162600  0.01994900  0.92943100  1
  O  1047  1  0.61025600  0.49192300  0.11025300  1
  O  1062  1  0.64839300  0.34753300  0.25705800  1
  O  1077  1  0.14791700  0.16423600  0.78298500  1
  O  1092  1  0.39779900  0.49220700  0.92894700  1
  O  1107  1  0.89758400  0.01970500  0.11116100  1
  O  1122  1  0.14851000  0.84759600  0.78407800  1
  O  1137  1  0.64870500  0.66438700  0.25594900  1
  O  1152  1  0.36443700  0.66426200  0.78416400  1
  O  1167  1  0.86431500  0.84762000  0.25586400  1
  O  1182  1  0.61344800  0.51965500  0.42826800  1
  O  1197  1  0.11383700  0.99229400  0.61189300  1
  O  1212  1  0.89673000  0.99221900  0.42781400  1
  O  1227  1  0.39647000  0.51969200  0.61230700  1
