# generated using pymatgen
data_H2C3
_symmetry_space_group_name_H-M   'P 1'
_cell_length_a   32.29930000
_cell_length_b   60.45040000
_cell_length_c   60.45190000
_cell_angle_alpha   89.99860000
_cell_angle_beta   90.00000000
_cell_angle_gamma   90.00000000
_symmetry_Int_Tables_number   1
_chemical_formula_structural   H2C3
_chemical_formula_sum   'H384 C576'
_cell_volume   118032.67353074
_cell_formula_units_Z   192
loop_
 _symmetry_equiv_pos_site_id
 _symmetry_equiv_pos_as_xyz
  1  'x, y, z'
loop_
 _atom_site_type_symbol
 _atom_site_label
 _atom_site_symmetry_multiplicity
 _atom_site_fract_x
 _atom_site_fract_y
 _atom_site_fract_z
 _atom_site_occupancy
  H  7  1  0.58661300  0.66616400  0.03212300  1
  H  8  1  0.58671800  0.66600400  0.96221700  1
  H  9  1  0.69734300  0.66320300  0.99721600  1
  H  16  1  0.58663500  0.35295400  0.96225700  1
  H  17  1  0.58666900  0.35288400  0.03216200  1
  H  18  1  0.69733200  0.35576800  0.99719700  1
  H  25  1  0.58662200  0.04444300  0.34073900  1
  H  26  1  0.58669000  0.97454200  0.34047100  1
  H  27  1  0.69734200  0.00951700  0.34343600  1
  H  34  1  0.58648600  0.97459100  0.65370600  1
  H  35  1  0.58660400  0.04449400  0.65387100  1
  H  36  1  0.69722300  0.00950000  0.65091000  1
  H  43  1  0.52153700  0.66614400  0.96217800  1
  H  44  1  0.52140400  0.66601200  0.03208400  1
  H  45  1  0.41079500  0.66319800  0.99706000  1
  H  52  1  0.52146900  0.35297400  0.03217100  1
  H  53  1  0.52143800  0.35286900  0.96226300  1
  H  54  1  0.41077900  0.35582900  0.99722700  1
  H  61  1  0.52143500  0.04452700  0.65370300  1
  H  62  1  0.52128600  0.97462300  0.65388400  1
  H  63  1  0.41068300  0.00964100  0.65088900  1
  H  70  1  0.52150900  0.97453300  0.34074400  1
  H  71  1  0.52144400  0.04443500  0.34045300  1
  H  72  1  0.41079800  0.00946600  0.34352100  1
  H  79  1  0.08657100  0.17146900  0.53202200  1
  H  80  1  0.08654000  0.17104400  0.46230900  1
  H  81  1  0.19760100  0.17055600  0.49715400  1
  H  88  1  0.08669800  0.84768700  0.46240800  1
  H  89  1  0.08671600  0.84782000  0.53212400  1
  H  90  1  0.19775000  0.84839000  0.49724200  1
  H  97  1  0.08639400  0.54428400  0.83530400  1
  H  98  1  0.08641300  0.47456600  0.83552900  1
  H  99  1  0.19744300  0.50944700  0.83611800  1
  H  106  1  0.08651500  0.47467000  0.15916800  1
  H  107  1  0.08650600  0.54439200  0.15879700  1
  H  108  1  0.19754800  0.50953200  0.15830000  1
  H  115  1  0.02149800  0.17146600  0.46231500  1
  H  116  1  0.02153200  0.17106100  0.53202800  1
  H  117  1  0.91046900  0.17056500  0.49718800  1
  H  124  1  0.02164000  0.84768200  0.53211100  1
  H  125  1  0.02167100  0.84786900  0.46239800  1
  H  126  1  0.91061000  0.84850700  0.49723100  1
  H  133  1  0.02143300  0.54439300  0.15916900  1
  H  134  1  0.02144500  0.47467200  0.15881500  1
  H  135  1  0.91040000  0.50952500  0.15834500  1
  H  142  1  0.02132500  0.47457400  0.83524500  1
  H  143  1  0.02135200  0.54429700  0.83552400  1
  H  144  1  0.91030000  0.50945600  0.83602700  1
  H  175  1  0.90192000  0.54181600  0.86336200  1
  H  176  1  0.86476600  0.57586200  0.86452500  1
  H  177  1  0.97299100  0.56572800  0.80981800  1
  H  178  1  0.93581100  0.59987200  0.81098400  1
  H  179  1  0.78430900  0.62567500  0.87212100  1
  H  180  1  0.83319900  0.64651700  0.81105400  1
  H  181  1  0.74716100  0.68656900  0.84484100  1
  H  182  1  0.82243200  0.70032100  0.76659400  1
  H  183  1  0.74405400  0.63183500  0.93455600  1
  H  184  1  0.70133600  0.63394800  0.96655500  1
  H  185  1  0.64188000  0.69043000  0.94044200  1
  H  186  1  0.68471100  0.68826800  0.90816500  1
  H  187  1  0.81859100  0.72743100  0.73807600  1
  H  188  1  0.77482900  0.77424100  0.78438100  1
  H  189  1  0.77691300  0.74693500  0.81262100  1
  H  190  1  0.77538900  0.65551100  0.90400600  1
  H  191  1  0.70571700  0.66289200  0.87496200  1
  H  192  1  0.89242500  0.62501500  0.83721300  1
  H  193  1  0.81671300  0.59987200  0.84139200  1
  H  194  1  0.80938300  0.71111400  0.82455000  1
  H  195  1  0.78263900  0.67777700  0.79345700  1
  H  226  1  0.90202200  0.47717300  0.13099500  1
  H  227  1  0.86481000  0.44314500  0.12984300  1
  H  228  1  0.97303200  0.45325300  0.18455500  1
  H  229  1  0.93578800  0.41912700  0.18340700  1
  H  230  1  0.78426600  0.39333200  0.12224900  1
  H  231  1  0.83317900  0.37253000  0.18332700  1
  H  232  1  0.74719400  0.33243600  0.14955700  1
  H  233  1  0.82259200  0.31874200  0.22780000  1
  H  234  1  0.74395500  0.38714400  0.05985800  1
  H  235  1  0.70122100  0.38502800  0.02786700  1
  H  236  1  0.64189300  0.32849200  0.05394900  1
  H  237  1  0.68474200  0.33065800  0.08622100  1
  H  238  1  0.81872400  0.29164100  0.25633000  1
  H  239  1  0.77490000  0.24482700  0.21004200  1
  H  240  1  0.77703500  0.27212200  0.18178900  1
  H  241  1  0.77536800  0.36345000  0.09037400  1
  H  242  1  0.70570400  0.35609900  0.11943300  1
  H  243  1  0.89236700  0.39399400  0.15720400  1
  H  244  1  0.81670100  0.41916300  0.15293800  1
  H  245  1  0.80962800  0.30794200  0.16986300  1
  H  246  1  0.78257000  0.34124500  0.20092000  1
  H  277  1  0.90243900  0.87587700  0.46484900  1
  H  278  1  0.86551700  0.87718300  0.43073100  1
  H  279  1  0.97326100  0.82222300  0.44096800  1
  H  280  1  0.93632100  0.82353100  0.40675600  1
  H  281  1  0.78406300  0.88441200  0.38110900  1
  H  282  1  0.83555800  0.82422000  0.35966700  1
  H  283  1  0.74733900  0.85716300  0.32022500  1
  H  284  1  0.85167600  0.79110100  0.29528800  1
  H  285  1  0.74394600  0.94678700  0.37474600  1
  H  286  1  0.70135400  0.97883000  0.37260600  1
  H  287  1  0.64166400  0.95268600  0.31621000  1
  H  288  1  0.68435800  0.92035000  0.31841400  1
  H  289  1  0.85252500  0.76230800  0.26825200  1
  H  290  1  0.73707600  0.78436400  0.24386100  1
  H  291  1  0.73691700  0.81348300  0.27042800  1
  H  292  1  0.77518400  0.91626200  0.35095700  1
  H  293  1  0.70550300  0.88709300  0.34404200  1
  H  294  1  0.89330700  0.84994800  0.38158200  1
  H  295  1  0.81750300  0.85403400  0.40665300  1
  H  296  1  0.79307500  0.83775300  0.29340800  1
  H  297  1  0.79538600  0.80556600  0.32871900  1
  H  328  1  0.90230400  0.14315200  0.52956600  1
  H  329  1  0.86538400  0.14185000  0.56368400  1
  H  330  1  0.97314800  0.19680100  0.55344700  1
  H  331  1  0.93620400  0.19549700  0.58765700  1
  H  332  1  0.78396500  0.13461900  0.61329400  1
  H  333  1  0.83543900  0.19481100  0.63474600  1
  H  334  1  0.74725300  0.16184700  0.67418800  1
  H  335  1  0.85162500  0.22789400  0.69912500  1
  H  336  1  0.74383400  0.07223900  0.61960300  1
  H  337  1  0.70126000  0.04019000  0.62174800  1
  H  338  1  0.64159900  0.06631700  0.67815900  1
  H  339  1  0.68427800  0.09865400  0.67595500  1
  H  340  1  0.85249900  0.25668100  0.72616700  1
  H  341  1  0.73703100  0.23464500  0.75055600  1
  H  342  1  0.73684800  0.20553200  0.72398200  1
  H  343  1  0.77507400  0.10275500  0.64341100  1
  H  344  1  0.70540800  0.13193100  0.65035000  1
  H  345  1  0.89319900  0.16905600  0.61282500  1
  H  346  1  0.81737000  0.16504100  0.58775700  1
  H  347  1  0.79308800  0.18125600  0.70100100  1
  H  348  1  0.79520600  0.21345300  0.66569100  1
  H  379  1  0.20591400  0.54188200  0.13094500  1
  H  380  1  0.24313800  0.57590500  0.12978200  1
  H  381  1  0.13494300  0.56581600  0.18451500  1
  H  382  1  0.17219800  0.59993800  0.18335200  1
  H  383  1  0.32372800  0.62569300  0.12216400  1
  H  384  1  0.27485400  0.64652800  0.18323700  1
  H  385  1  0.36090800  0.68657600  0.14945900  1
  H  386  1  0.28563700  0.70029500  0.22772400  1
  H  387  1  0.36402000  0.63186200  0.05972600  1
  H  388  1  0.40674800  0.63397300  0.02773000  1
  H  389  1  0.46626000  0.69042700  0.05386900  1
  H  390  1  0.42341400  0.68826500  0.08613900  1
  H  391  1  0.28946400  0.72738600  0.25625700  1
  H  392  1  0.33324500  0.77422600  0.20998400  1
  H  393  1  0.33117100  0.74693800  0.18172900  1
  H  394  1  0.33269400  0.65551400  0.09027500  1
  H  395  1  0.40233900  0.66291400  0.11933100  1
  H  396  1  0.21561400  0.62506500  0.15713400  1
  H  397  1  0.29126900  0.59988800  0.15286500  1
  H  398  1  0.29867100  0.71113000  0.16977500  1
  H  399  1  0.32543700  0.67776700  0.20083600  1
  H  430  1  0.20582700  0.47709200  0.86343600  1
  H  431  1  0.24309400  0.44308200  0.86459000  1
  H  432  1  0.13490900  0.45315500  0.80984700  1
  H  433  1  0.17220400  0.41904600  0.81100100  1
  H  434  1  0.32378300  0.39331900  0.87217200  1
  H  435  1  0.27486900  0.37249200  0.81110300  1
  H  436  1  0.36098500  0.33245300  0.84485100  1
  H  437  1  0.28559700  0.31873200  0.76662600  1
  H  438  1  0.36418100  0.38717500  0.93455000  1
  H  439  1  0.40690600  0.38505900  0.96654500  1
  H  440  1  0.46622000  0.32851400  0.94047900  1
  H  441  1  0.42338000  0.33068100  0.90820000  1
  H  442  1  0.28941400  0.29163400  0.73809700  1
  H  443  1  0.33317100  0.24479600  0.78437900  1
  H  444  1  0.33110200  0.27209200  0.81263100  1
  H  445  1  0.33275300  0.36345700  0.90403800  1
  H  446  1  0.40242300  0.35612200  0.87498200  1
  H  447  1  0.21564800  0.39392300  0.83720200  1
  H  448  1  0.29125600  0.41913000  0.84150700  1
  H  449  1  0.29862800  0.30792000  0.82457300  1
  H  450  1  0.32548600  0.34124200  0.79349000  1
  H  481  1  0.20607500  0.87572800  0.52961800  1
  H  482  1  0.24327100  0.87689800  0.56364800  1
  H  483  1  0.13517200  0.82211700  0.55352200  1
  H  484  1  0.17239600  0.82328700  0.58765200  1
  H  485  1  0.32380500  0.88451200  0.61345400  1
  H  486  1  0.27498400  0.82341100  0.63424800  1
  H  487  1  0.36092000  0.85721100  0.67434300  1
  H  488  1  0.28554100  0.77893600  0.68799000  1
  H  489  1  0.36402000  0.94691400  0.61960300  1
  H  490  1  0.40671100  0.97892400  0.62170000  1
  H  491  1  0.46610600  0.95288200  0.67823300  1
  H  492  1  0.42330000  0.92059200  0.67608700  1
  H  493  1  0.28935500  0.75038700  0.71507400  1
  H  494  1  0.33314600  0.79663700  0.76193300  1
  H  495  1  0.33106500  0.82490900  0.73465600  1
  H  496  1  0.33266300  0.91639300  0.64330500  1
  H  497  1  0.40235800  0.88736000  0.65068200  1
  H  498  1  0.21574700  0.84953100  0.61278800  1
  H  499  1  0.29142000  0.85378900  0.58762500  1
  H  500  1  0.29850100  0.83686300  0.69883600  1
  H  501  1  0.32559500  0.80582900  0.66552100  1
  H  532  1  0.20578700  0.14314700  0.46478700  1
  H  533  1  0.24271300  0.14183900  0.43067100  1
  H  534  1  0.13492200  0.19677800  0.44088400  1
  H  535  1  0.17187000  0.19546800  0.40667400  1
  H  536  1  0.32415200  0.13461300  0.38107500  1
  H  537  1  0.27265200  0.19479300  0.35959700  1
  H  538  1  0.36082800  0.16181400  0.32015600  1
  H  539  1  0.25652200  0.22791100  0.29525700  1
  H  540  1  0.36425800  0.07224300  0.37478400  1
  H  541  1  0.40681300  0.04018700  0.37265900  1
  H  542  1  0.46645500  0.06625900  0.31621500  1
  H  543  1  0.42378900  0.09860800  0.31840100  1
  H  544  1  0.25565500  0.25670500  0.26822300  1
  H  545  1  0.37099200  0.23458100  0.24374000  1
  H  546  1  0.37115600  0.20545800  0.27030200  1
  H  547  1  0.33300700  0.10274200  0.35097400  1
  H  548  1  0.40268000  0.13189800  0.34398600  1
  H  549  1  0.21490800  0.16902600  0.38151400  1
  H  550  1  0.29071800  0.16503800  0.40660000  1
  H  551  1  0.31498800  0.18122300  0.29333900  1
  H  552  1  0.31286400  0.21342300  0.32864300  1
  H  583  1  0.20579000  0.47713200  0.13101500  1
  H  584  1  0.24298000  0.44310000  0.12984100  1
  H  585  1  0.13507900  0.45328400  0.18472200  1
  H  586  1  0.17229700  0.41915200  0.18354700  1
  H  587  1  0.32370000  0.39334200  0.12225300  1
  H  588  1  0.27477000  0.37249900  0.18331000  1
  H  589  1  0.36089300  0.33246800  0.14956200  1
  H  590  1  0.28554700  0.31871600  0.22779000  1
  H  591  1  0.36417100  0.38722700  0.05986800  1
  H  592  1  0.40691500  0.38510600  0.02787900  1
  H  593  1  0.46622300  0.32856900  0.05396900  1
  H  594  1  0.42336500  0.33073900  0.08623700  1
  H  595  1  0.28939900  0.29160900  0.25631200  1
  H  596  1  0.33319800  0.24480100  0.21001500  1
  H  597  1  0.33109600  0.27210200  0.18177100  1
  H  598  1  0.33273400  0.36351800  0.09037400  1
  H  599  1  0.40235200  0.35614300  0.11945500  1
  H  600  1  0.21556400  0.39398200  0.15729900  1
  H  601  1  0.29120700  0.41914500  0.15289800  1
  H  602  1  0.29858500  0.30792200  0.16983800  1
  H  603  1  0.32539600  0.34125200  0.20092300  1
  H  634  1  0.20552700  0.54185100  0.86348300  1
  H  635  1  0.24245600  0.57596100  0.86479200  1
  H  636  1  0.13489400  0.56568900  0.80973700  1
  H  637  1  0.17184500  0.59990000  0.81105300  1
  H  638  1  0.32405000  0.62553600  0.87201800  1
  H  639  1  0.27250100  0.64702300  0.81185400  1
  H  640  1  0.36074700  0.68644000  0.84479800  1
  H  641  1  0.25641700  0.71140500  0.77874900  1
  H  642  1  0.36436900  0.63182200  0.93435800  1
  H  643  1  0.40696200  0.63397300  0.96639800  1
  H  644  1  0.46646800  0.69044700  0.94029600  1
  H  645  1  0.42377000  0.68823400  0.90796700  1
  H  646  1  0.25556500  0.73846500  0.74997600  1
  H  647  1  0.37096700  0.76287700  0.77208900  1
  H  648  1  0.37112200  0.73628300  0.80118400  1
  H  649  1  0.33301600  0.65564700  0.90388700  1
  H  650  1  0.40263000  0.66260800  0.87468300  1
  H  651  1  0.21478700  0.62508900  0.83749700  1
  H  652  1  0.29056600  0.60000800  0.84165900  1
  H  653  1  0.31493500  0.71326900  0.82542000  1
  H  654  1  0.31271500  0.67797600  0.79321000  1
  H  685  1  0.20567500  0.14323500  0.52958900  1
  H  686  1  0.24257400  0.14192500  0.56371100  1
  H  687  1  0.13507900  0.19701100  0.55338900  1
  H  688  1  0.17198700  0.19569300  0.58761300  1
  H  689  1  0.32411800  0.13474000  0.61325100  1
  H  690  1  0.27259600  0.19490400  0.63476100  1
  H  691  1  0.36078700  0.16191100  0.67418300  1
  H  692  1  0.25644100  0.22797200  0.69913300  1
  H  693  1  0.36419000  0.07236000  0.61954300  1
  H  694  1  0.40677900  0.04031100  0.62165300  1
  H  695  1  0.46646200  0.06639500  0.67807900  1
  H  696  1  0.42376400  0.09873200  0.67591200  1
  H  697  1  0.25561500  0.25675100  0.72618400  1
  H  698  1  0.37094200  0.23458100  0.75064200  1
  H  699  1  0.37106900  0.20547300  0.72406300  1
  H  700  1  0.33295700  0.10286000  0.64336500  1
  H  701  1  0.40264900  0.13201200  0.65032500  1
  H  702  1  0.21486800  0.16920000  0.61282000  1
  H  703  1  0.29067700  0.16513700  0.58774100  1
  H  704  1  0.31491300  0.18127100  0.70100500  1
  H  705  1  0.31280500  0.21351600  0.66574000  1
  H  736  1  0.20585800  0.87576400  0.46483600  1
  H  737  1  0.24272600  0.87707900  0.43070400  1
  H  738  1  0.13510400  0.82205900  0.44100500  1
  H  739  1  0.17199400  0.82337900  0.40677600  1
  H  740  1  0.32410800  0.88433400  0.38109600  1
  H  741  1  0.27264000  0.82415800  0.35960100  1
  H  742  1  0.36076600  0.85717100  0.32016400  1
  H  743  1  0.25654300  0.79104000  0.29524700  1
  H  744  1  0.36420800  0.94674500  0.37485700  1
  H  745  1  0.40678800  0.97879700  0.37274000  1
  H  746  1  0.46653300  0.95268400  0.31634900  1
  H  747  1  0.42384800  0.92034900  0.31852000  1
  H  748  1  0.25571100  0.76226100  0.26819800  1
  H  749  1  0.37099800  0.78445600  0.24371200  1
  H  750  1  0.37112800  0.81356300  0.27028900  1
  H  751  1  0.33300700  0.91623600  0.35106200  1
  H  752  1  0.40262700  0.88705900  0.34401000  1
  H  753  1  0.21488900  0.84986200  0.38158200  1
  H  754  1  0.29075500  0.85389700  0.40661300  1
  H  755  1  0.31493800  0.83775800  0.29334200  1
  H  756  1  0.31287000  0.80554600  0.32863600  1
  H  787  1  0.90208900  0.47705100  0.86336200  1
  H  788  1  0.86489200  0.44302300  0.86453400  1
  H  789  1  0.97274600  0.45321900  0.80962700  1
  H  790  1  0.93551800  0.41908900  0.81079900  1
  H  791  1  0.78417300  0.39328400  0.87211800  1
  H  792  1  0.83305800  0.37246100  0.81104200  1
  H  793  1  0.74706100  0.33238700  0.84482900  1
  H  794  1  0.82255000  0.31871300  0.76658800  1
  H  795  1  0.74393600  0.38712700  0.93451900  1
  H  796  1  0.70122900  0.38502800  0.96652300  1
  H  797  1  0.64180600  0.32851100  0.94046100  1
  H  798  1  0.68463100  0.33065900  0.90817900  1
  H  799  1  0.81871800  0.29161800  0.73805000  1
  H  800  1  0.77489600  0.24478400  0.78432000  1
  H  801  1  0.77699900  0.27206900  0.81258000  1
  H  802  1  0.77529400  0.36342500  0.90399900  1
  H  803  1  0.70560000  0.35606200  0.87496200  1
  H  804  1  0.89226700  0.39391800  0.83707300  1
  H  805  1  0.81663300  0.41909900  0.84144400  1
  H  806  1  0.80960700  0.30789700  0.82451200  1
  H  807  1  0.78240200  0.34118200  0.79346700  1
  H  838  1  0.90213100  0.54191500  0.13104600  1
  H  839  1  0.86492300  0.57594000  0.12987400  1
  H  840  1  0.97287000  0.56578000  0.18473500  1
  H  841  1  0.93563400  0.59990700  0.18355900  1
  H  842  1  0.78423300  0.62572800  0.12226200  1
  H  843  1  0.83314600  0.64653200  0.18334000  1
  H  844  1  0.74711600  0.68661100  0.14958000  1
  H  845  1  0.82258200  0.70028700  0.22781700  1
  H  846  1  0.74384700  0.63184900  0.05990000  1
  H  847  1  0.70112900  0.63395300  0.02790200  1
  H  848  1  0.64186500  0.69053300  0.05392300  1
  H  849  1  0.68469900  0.68837800  0.08620500  1
  H  850  1  0.81874700  0.72737600  0.25635800  1
  H  851  1  0.77490700  0.77421300  0.21009800  1
  H  852  1  0.77701200  0.74693100  0.18183400  1
  H  853  1  0.77529600  0.65557500  0.09039100  1
  H  854  1  0.70564700  0.66295800  0.11944700  1
  H  855  1  0.89233700  0.62506800  0.15733300  1
  H  856  1  0.81670600  0.59990000  0.15290200  1
  H  857  1  0.80957500  0.71110900  0.16988500  1
  H  858  1  0.78253600  0.67780200  0.20094100  1
  H  889  1  0.90241700  0.14321500  0.46476600  1
  H  890  1  0.86549600  0.14189000  0.43065300  1
  H  891  1  0.97295500  0.19700300  0.44093900  1
  H  892  1  0.93601700  0.19567100  0.40672500  1
  H  893  1  0.78394000  0.13464600  0.38109000  1
  H  894  1  0.83537400  0.19484200  0.35961600  1
  H  895  1  0.74722500  0.16184500  0.32017900  1
  H  896  1  0.85157400  0.22790600  0.29525400  1
  H  897  1  0.74394400  0.07223800  0.37477700  1
  H  898  1  0.70139600  0.04017500  0.37265700  1
  H  899  1  0.64152700  0.06631400  0.31631200  1
  H  900  1  0.68418500  0.09865900  0.31848700  1
  H  901  1  0.85247600  0.25670100  0.26821700  1
  H  902  1  0.73703500  0.23467000  0.24379000  1
  H  903  1  0.73682600  0.20555000  0.27035900  1
  H  904  1  0.77508100  0.10277200  0.35099000  1
  H  905  1  0.70539500  0.13192800  0.34402700  1
  H  906  1  0.89314000  0.16917800  0.38153700  1
  H  907  1  0.81734700  0.16505600  0.40661700  1
  H  908  1  0.79302700  0.18126900  0.29335800  1
  H  909  1  0.79516300  0.21346600  0.32866400  1
  H  940  1  0.90248600  0.87585000  0.52963400  1
  H  941  1  0.86551200  0.87715300  0.56373200  1
  H  942  1  0.97309800  0.82210400  0.55349100  1
  H  943  1  0.93610600  0.82341200  0.58768800  1
  H  944  1  0.78390100  0.88438200  0.61327200  1
  H  945  1  0.83540300  0.82421600  0.63478700  1
  H  946  1  0.74719600  0.85720400  0.67419400  1
  H  947  1  0.85147800  0.79109800  0.69910600  1
  H  948  1  0.74375100  0.94678400  0.61955700  1
  H  949  1  0.70118400  0.97883800  0.62169200  1
  H  950  1  0.64145000  0.95270600  0.67807900  1
  H  951  1  0.68413200  0.92036400  0.67588800  1
  H  952  1  0.85233600  0.76231100  0.72614700  1
  H  953  1  0.73706600  0.78449400  0.75067000  1
  H  954  1  0.73691400  0.81361100  0.72410100  1
  H  955  1  0.77497400  0.91627100  0.64333800  1
  H  956  1  0.70533900  0.88709500  0.65035300  1
  H  957  1  0.89314700  0.84986900  0.61286500  1
  H  958  1  0.81738200  0.85400200  0.58776400  1
  H  959  1  0.79305900  0.83781500  0.70102800  1
  H  960  1  0.79516600  0.80559800  0.66574100  1
  C  1  1  0.64444400  0.66449200  0.97685900  1
  C  2  1  0.66562700  0.66394900  0.99720300  1
  C  3  1  0.64438800  0.66454500  0.01753000  1
  C  4  1  0.60069700  0.66615800  0.01709500  1
  C  5  1  0.57686300  0.66666667  0.99716400  1
  C  6  1  0.60075300  0.66609500  0.97725500  1
  C  10  1  0.64441600  0.35445300  0.01753900  1
  C  11  1  0.66561800  0.35502700  0.99720100  1
  C  12  1  0.64439400  0.35446900  0.97686800  1
  C  13  1  0.60070300  0.35287400  0.97728800  1
  C  14  1  0.57685100  0.35232200  0.99721100  1
  C  15  1  0.60072200  0.35284300  0.01712900  1
  C  19  1  0.64443500  0.98916500  0.34208900  1
  C  20  1  0.66562700  0.00950900  0.34270200  1
  C  21  1  0.64439700  0.02984300  0.34217700  1
  C  22  1  0.60070300  0.02941600  0.34060000  1
  C  23  1  0.57686300  0.00949200  0.34000900  1
  C  24  1  0.60074300  0.98957700  0.34047400  1
  C  28  1  0.64432900  0.02985900  0.65226300  1
  C  29  1  0.66550900  0.00951200  0.65165800  1
  C  30  1  0.64427100  0.98918100  0.65221100  1
  C  31  1  0.60057600  0.98961600  0.65381300  1
  C  32  1  0.57674900  0.00954700  0.65438400  1
  C  33  1  0.60064100  0.02945400  0.65388900  1
  C  37  1  0.46367500  0.66450700  0.01743200  1
  C  38  1  0.44250700  0.66394400  0.99708100  1
  C  39  1  0.46375900  0.66454300  0.97675600  1
  C  40  1  0.50745000  0.66616900  0.97720300  1
  C  41  1  0.53126800  0.66666667  0.99713800  1
  C  42  1  0.50737000  0.66610600  0.01704300  1
  C  46  1  0.46369700  0.35447900  0.97688500  1
  C  47  1  0.44249500  0.35507800  0.99722400  1
  C  48  1  0.46371200  0.35452000  0.01755700  1
  C  49  1  0.50740400  0.35291700  0.01713900  1
  C  50  1  0.53125600  0.35234300  0.99721700  1
  C  51  1  0.50738800  0.35284800  0.97729800  1
  C  55  1  0.46356700  0.98927300  0.65224600  1
  C  56  1  0.44239600  0.00962300  0.65163700  1
  C  57  1  0.46365300  0.02994500  0.65218400  1
  C  58  1  0.50734500  0.02950300  0.65378200  1
  C  59  1  0.53115700  0.00957000  0.65438100  1
  C  60  1  0.50725500  0.98966500  0.65388600  1
  C  64  1  0.46370600  0.02981400  0.34214200  1
  C  65  1  0.44251100  0.00947200  0.34277300  1
  C  66  1  0.46374000  0.98913700  0.34223800  1
  C  67  1  0.50743200  0.98956200  0.34064500  1
  C  68  1  0.53127100  0.00948400  0.34003000  1
  C  69  1  0.50739700  0.02939900  0.34050600  1
  C  73  1  0.14452900  0.17081400  0.47682100  1
  C  74  1  0.16587300  0.17050300  0.49715800  1
  C  75  1  0.14454700  0.17094700  0.51750000  1
  C  76  1  0.10073800  0.17159500  0.51702300  1
  C  77  1  0.07682100  0.17166300  0.49716400  1
  C  78  1  0.10071600  0.17140500  0.47730100  1
  C  82  1  0.14470500  0.84812400  0.51759900  1
  C  83  1  0.16602100  0.84846500  0.49725200  1
  C  84  1  0.14468000  0.84807700  0.47691700  1
  C  85  1  0.10086800  0.84746700  0.47740200  1
  C  86  1  0.07697000  0.84735200  0.49726700  1
  C  87  1  0.10088700  0.84753100  0.51712700  1
  C  91  1  0.14440500  0.48909000  0.83584400  1
  C  92  1  0.16571800  0.50943700  0.83620000  1
  C  93  1  0.14438000  0.52977500  0.83577200  1
  C  94  1  0.10056800  0.52928800  0.83512300  1
  C  95  1  0.07666600  0.50942400  0.83501500  1
  C  96  1  0.10058300  0.48956200  0.83522900  1
  C  100  1  0.14449500  0.52987600  0.15853400  1
  C  101  1  0.16582000  0.50953200  0.15820600  1
  C  102  1  0.14450100  0.48918800  0.15865300  1
  C  103  1  0.10068500  0.48966800  0.15931000  1
  C  104  1  0.07677200  0.50953200  0.15937700  1
  C  105  1  0.10067900  0.52939600  0.15913500  1
  C  109  1  0.96354300  0.17082600  0.51751800  1
  C  110  1  0.94219700  0.17049200  0.49718300  1
  C  111  1  0.96351900  0.17094700  0.47684100  1
  C  112  1  0.00733000  0.17160700  0.47731200  1
  C  113  1  0.03124700  0.17166500  0.49717100  1
  C  114  1  0.00735500  0.17141800  0.51703600  1
  C  118  1  0.96368200  0.84820400  0.47690200  1
  C  119  1  0.94233800  0.84856500  0.49723700  1
  C  120  1  0.96365600  0.84814400  0.51758200  1
  C  121  1  0.00747300  0.84750100  0.51711400  1
  C  122  1  0.03139000  0.84737400  0.49725700  1
  C  123  1  0.00749400  0.84757900  0.47739000  1
  C  127  1  0.96345600  0.48918600  0.15856900  1
  C  128  1  0.94212700  0.50952800  0.15825000  1
  C  129  1  0.96344500  0.52987400  0.15867200  1
  C  130  1  0.00726200  0.52939400  0.15930700  1
  C  131  1  0.03118200  0.50953200  0.15938500  1
  C  132  1  0.00727500  0.48966600  0.15915400  1
  C  136  1  0.96336300  0.52979100  0.83580000  1
  C  137  1  0.94202700  0.50945200  0.83612500  1
  C  138  1  0.96334200  0.48910500  0.83571200  1
  C  139  1  0.00716000  0.48957500  0.83509000  1
  C  140  1  0.03108000  0.50943400  0.83500600  1
  C  141  1  0.00717900  0.52930300  0.83522300  1
  C  145  1  0.94102000  0.55024300  0.83635900  1
  C  146  1  0.90901200  0.55375600  0.85196800  1
  C  147  1  0.88707000  0.57386400  0.85266100  1
  C  148  1  0.89597300  0.59110900  0.83754900  1
  C  149  1  0.92822300  0.58773300  0.82208700  1
  C  150  1  0.95031200  0.56764200  0.82148900  1
  C  151  1  0.87530200  0.61135700  0.83830200  1
  C  152  1  0.83397600  0.61346500  0.84023300  1
  C  153  1  0.81342500  0.63360900  0.84182500  1
  C  154  1  0.81523100  0.64954200  0.82471100  1
  C  155  1  0.79163400  0.66923300  0.82580700  1
  C  156  1  0.76541300  0.67269700  0.84425400  1
  C  157  1  0.76305700  0.65707400  0.86161000  1
  C  158  1  0.78692200  0.63750100  0.86002700  1
  C  159  1  0.73516300  0.66009200  0.87891500  1
  C  160  1  0.74587700  0.65867700  0.90037500  1
  C  161  1  0.71832200  0.65970800  0.91806400  1
  C  162  1  0.72230500  0.64414800  0.93538900  1
  C  163  1  0.68786300  0.67642400  0.92014700  1
  C  164  1  0.66253400  0.67765800  0.93912100  1
  C  165  1  0.66728300  0.66240900  0.95670200  1
  C  166  1  0.69715900  0.64544000  0.95431400  1
  C  167  1  0.79136700  0.68382800  0.80803000  1
  C  168  1  0.80134500  0.70538500  0.80969900  1
  C  169  1  0.79924100  0.72071600  0.79244200  1
  C  170  1  0.81162000  0.71573900  0.77053000  1
  C  171  1  0.78568200  0.74250500  0.79694700  1
  C  172  1  0.78403800  0.75860700  0.78015500  1
  C  173  1  0.79597300  0.75366900  0.75814600  1
  C  174  1  0.80988400  0.73188100  0.75373000  1
  C  196  1  0.94109500  0.46874100  0.15800700  1
  C  197  1  0.90906800  0.46524100  0.14240400  1
  C  198  1  0.88710800  0.44513800  0.14171200  1
  C  199  1  0.89597300  0.42789600  0.15683300  1
  C  200  1  0.92822200  0.43126600  0.17229800  1
  C  201  1  0.95035600  0.45134200  0.17288300  1
  C  202  1  0.87526800  0.40765800  0.15608600  1
  C  203  1  0.83394200  0.40556600  0.15414100  1
  C  204  1  0.81336700  0.38542700  0.15255600  1
  C  205  1  0.81521200  0.36949500  0.16967300  1
  C  206  1  0.79165500  0.34979100  0.16857800  1
  C  207  1  0.76543300  0.34631400  0.15013400  1
  C  208  1  0.76305300  0.36193000  0.13277100  1
  C  209  1  0.78687900  0.38151400  0.13435400  1
  C  210  1  0.73515100  0.35889100  0.11547600  1
  C  211  1  0.74586600  0.36027100  0.09401300  1
  C  212  1  0.71829200  0.35924300  0.07633300  1
  C  213  1  0.72222700  0.37482000  0.05902100  1
  C  214  1  0.68786300  0.34251100  0.07424400  1
  C  215  1  0.66254000  0.34126800  0.05526700  1
  C  216  1  0.66724600  0.35653400  0.03769700  1
  C  217  1  0.69707900  0.37352300  0.04009900  1
  C  218  1  0.79140100  0.33520500  0.18636000  1
  C  219  1  0.80150100  0.31366500  0.18470300  1
  C  220  1  0.79939200  0.29833700  0.20196100  1
  C  221  1  0.81178000  0.30332300  0.22387000  1
  C  222  1  0.78580700  0.27655400  0.19746100  1
  C  223  1  0.78414200  0.26046000  0.21425800  1
  C  224  1  0.79607300  0.26540600  0.23626500  1
  C  225  1  0.81001300  0.28718900  0.24067700  1
  C  247  1  0.94138600  0.84880500  0.45644100  1
  C  248  1  0.90951000  0.86448500  0.45290200  1
  C  249  1  0.88773400  0.86527500  0.43274900  1
  C  250  1  0.89665600  0.85018100  0.41549100  1
  C  251  1  0.92874100  0.83463000  0.41890300  1
  C  252  1  0.95068700  0.83394700  0.43903100  1
  C  253  1  0.87611400  0.85100700  0.39521600  1
  C  254  1  0.83479500  0.85291800  0.39306300  1
  C  255  1  0.81423400  0.85448700  0.37291500  1
  C  256  1  0.81683500  0.83761200  0.35676200  1
  C  257  1  0.79306400  0.83846600  0.33708400  1
  C  258  1  0.76592400  0.85664300  0.33395800  1
  C  259  1  0.76307300  0.87389200  0.34967500  1
  C  260  1  0.78705700  0.87242500  0.36919900  1
  C  261  1  0.73496000  0.89110900  0.34670700  1
  C  262  1  0.74563600  0.91258900  0.34793300  1
  C  263  1  0.71807000  0.93027200  0.34692700  1
  C  264  1  0.72216400  0.94762100  0.36245000  1
  C  265  1  0.68757500  0.93235300  0.33023100  1
  C  266  1  0.66239200  0.95138200  0.32894900  1
  C  267  1  0.66723700  0.96898900  0.34416200  1
  C  268  1  0.69712200  0.96658400  0.36112400  1
  C  269  1  0.79434100  0.82072900  0.32228400  1
  C  270  1  0.79432200  0.82273400  0.30011100  1
  C  271  1  0.79397900  0.80489300  0.28563500  1
  C  272  1  0.82700800  0.78958800  0.28475600  1
  C  273  1  0.76123900  0.80260700  0.27032200  1
  C  274  1  0.76157700  0.78549900  0.25453000  1
  C  275  1  0.79482300  0.77024300  0.25324800  1
  C  276  1  0.82733100  0.77254900  0.26884300  1
  C  298  1  0.94124700  0.17022500  0.53797400  1
  C  299  1  0.90935700  0.15455500  0.54150600  1
  C  300  1  0.88758600  0.15376600  0.56165900  1
  C  301  1  0.89651700  0.16885900  0.57891500  1
  C  302  1  0.92861300  0.18440400  0.57550900  1
  C  303  1  0.95055700  0.18508600  0.55538100  1
  C  304  1  0.87599400  0.16802200  0.59919400  1
  C  305  1  0.83467600  0.16612100  0.60134500  1
  C  306  1  0.81413000  0.16454100  0.62149300  1
  C  307  1  0.81670800  0.18142000  0.63764300  1
  C  308  1  0.79296600  0.18055300  0.65733100  1
  C  309  1  0.76582200  0.16237600  0.66044800  1
  C  310  1  0.76298600  0.14512400  0.64473400  1
  C  311  1  0.78694600  0.14660800  0.62520400  1
  C  312  1  0.73486700  0.12791100  0.64769500  1
  C  313  1  0.74552300  0.10643100  0.64642500  1
  C  314  1  0.71795200  0.08875200  0.64742100  1
  C  315  1  0.72204000  0.07140700  0.63189400  1
  C  316  1  0.68748500  0.08665800  0.66413100  1
  C  317  1  0.66226500  0.06764200  0.66539300  1
  C  318  1  0.66713200  0.05003300  0.65018600  1
  C  319  1  0.69700600  0.05244100  0.63321900  1
  C  320  1  0.79421800  0.19829000  0.67212600  1
  C  321  1  0.79424400  0.19627800  0.69429700  1
  C  322  1  0.79391400  0.21411600  0.70877300  1
  C  323  1  0.82696800  0.22940500  0.70966400  1
  C  324  1  0.76118300  0.21640200  0.72409100  1
  C  325  1  0.76153100  0.23350500  0.73988500  1
  C  326  1  0.79478800  0.24875600  0.74116800  1
  C  327  1  0.82729900  0.24644500  0.72557500  1
  C  349  1  0.16686000  0.55032100  0.15796300  1
  C  350  1  0.19887700  0.55381600  0.14235600  1
  C  351  1  0.22084300  0.57391700  0.14165400  1
  C  352  1  0.21199800  0.59116100  0.15677500  1
  C  353  1  0.17975800  0.58779600  0.17224600  1
  C  354  1  0.15761900  0.56772200  0.17284100  1
  C  355  1  0.23270700  0.61139900  0.15602000  1
  C  356  1  0.27403300  0.61349000  0.15405300  1
  C  357  1  0.29462800  0.63362400  0.15246400  1
  C  358  1  0.29278900  0.64956400  0.16957200  1
  C  359  1  0.31640600  0.66924900  0.16848100  1
  C  360  1  0.34262300  0.67271300  0.15003200  1
  C  361  1  0.34499100  0.65709100  0.13267800  1
  C  362  1  0.32112700  0.63751800  0.13426100  1
  C  363  1  0.37289600  0.66010800  0.11537600  1
  C  364  1  0.36219300  0.65870000  0.09391300  1
  C  365  1  0.38976600  0.65972300  0.07622800  1
  C  366  1  0.38577900  0.64416900  0.05889700  1
  C  367  1  0.42023100  0.67643900  0.07414300  1
  C  368  1  0.44556600  0.67767000  0.05517100  1
  C  369  1  0.44081400  0.66242700  0.03758700  1
  C  370  1  0.41092500  0.64546500  0.03997100  1
  C  371  1  0.31668400  0.68382800  0.18627200  1
  C  372  1  0.30672100  0.70538800  0.18462000  1
  C  373  1  0.30883600  0.72070700  0.20189000  1
  C  374  1  0.29644500  0.71571600  0.22379700  1
  C  375  1  0.32240300  0.74249600  0.19740100  1
  C  376  1  0.32405900  0.75858600  0.21420300  1
  C  377  1  0.31209300  0.75363800  0.23620600  1
  C  378  1  0.29818200  0.73184500  0.24060800  1
  C  400  1  0.16678300  0.46864900  0.83641500  1
  C  401  1  0.19878100  0.46515200  0.85203400  1
  C  402  1  0.22078400  0.44506400  0.85272500  1
  C  403  1  0.21197300  0.42782300  0.83759200  1
  C  404  1  0.17973100  0.43118200  0.82212000  1
  C  405  1  0.15756300  0.45124900  0.82153300  1
  C  406  1  0.23271900  0.40759700  0.83833400  1
  C  407  1  0.27404500  0.40552300  0.84030600  1
  C  408  1  0.29466500  0.38539400  0.84187400  1
  C  409  1  0.29285400  0.36946800  0.82475400  1
  C  410  1  0.31647400  0.34978600  0.82583900  1
  C  411  1  0.34270000  0.34631500  0.84428200  1
  C  412  1  0.34506900  0.36193500  0.86164000  1
  C  413  1  0.32118000  0.38150000  0.86007100  1
  C  414  1  0.37297300  0.35891100  0.87893800  1
  C  415  1  0.36226700  0.36030200  0.90040100  1
  C  416  1  0.38982500  0.35926500  0.91808700  1
  C  417  1  0.38589600  0.37484600  0.93539400  1
  C  418  1  0.42025900  0.34253400  0.92017500  1
  C  419  1  0.44558800  0.34129600  0.93915000  1
  C  420  1  0.44086700  0.35655500  0.95672300  1
  C  421  1  0.41103600  0.37354600  0.95431900  1
  C  422  1  0.31673100  0.33519400  0.80806000  1
  C  423  1  0.30669300  0.31364600  0.80972500  1
  C  424  1  0.30876800  0.29831700  0.79246500  1
  C  425  1  0.29639000  0.30331000  0.77055500  1
  C  426  1  0.32232800  0.27652900  0.79696000  1
  C  427  1  0.32396300  0.26043500  0.78016200  1
  C  428  1  0.31202200  0.26538400  0.75815800  1
  C  429  1  0.29811700  0.28717600  0.75374900  1
  C  451  1  0.16706800  0.84868500  0.53804000  1
  C  452  1  0.19905300  0.86430900  0.54154500  1
  C  453  1  0.22100100  0.86501500  0.56164800  1
  C  454  1  0.21216800  0.84988200  0.57888600  1
  C  455  1  0.17994700  0.83440000  0.57551500  1
  C  456  1  0.15782300  0.83380300  0.55543600  1
  C  457  1  0.23285300  0.85064500  0.59912600  1
  C  458  1  0.27417200  0.85260700  0.60122200  1
  C  459  1  0.29474600  0.85419400  0.62135900  1
  C  460  1  0.29292800  0.83707400  0.63728400  1
  C  461  1  0.31648300  0.83817400  0.65698800  1
  C  462  1  0.34266900  0.85663300  0.66047100  1
  C  463  1  0.34502800  0.87399800  0.64485600  1
  C  464  1  0.32119800  0.87241100  0.62527400  1
  C  465  1  0.37290500  0.89130600  0.64789800  1
  C  466  1  0.36216800  0.91276500  0.64649000  1
  C  467  1  0.38972000  0.93045700  0.64750300  1
  C  468  1  0.38575100  0.94776400  0.63192400  1
  C  469  1  0.42015700  0.93256300  0.66423100  1
  C  470  1  0.44546700  0.95154500  0.66545600  1
  C  471  1  0.44071500  0.96911500  0.65019400  1
  C  472  1  0.41087800  0.96669700  0.63321000  1
  C  473  1  0.31676500  0.82038700  0.67156700  1
  C  474  1  0.30664400  0.82202800  0.69310600  1
  C  475  1  0.30873400  0.80475900  0.70841900  1
  C  476  1  0.29634300  0.78285300  0.70341600  1
  C  477  1  0.32229100  0.80924000  0.73021000  1
  C  478  1  0.32393200  0.79243100  0.74629300  1
  C  479  1  0.31198700  0.77043000  0.74132900  1
  C  480  1  0.29807100  0.76603600  0.71953800  1
  C  502  1  0.16682600  0.17020700  0.45636500  1
  C  503  1  0.19871200  0.15453300  0.45283700  1
  C  504  1  0.22049600  0.15374600  0.43268700  1
  C  505  1  0.21155800  0.16883100  0.41542300  1
  C  506  1  0.17946400  0.18437900  0.41882600  1
  C  507  1  0.15751600  0.18506200  0.43895400  1
  C  508  1  0.23210000  0.16800200  0.39515100  1
  C  509  1  0.27342600  0.16612000  0.39300900  1
  C  510  1  0.29399000  0.16453700  0.37286600  1
  C  511  1  0.29137400  0.18139800  0.35669900  1
  C  512  1  0.31511400  0.18052300  0.33701000  1
  C  513  1  0.34227300  0.16235300  0.33390300  1
  C  514  1  0.34512100  0.14510900  0.34962800  1
  C  515  1  0.32115500  0.14659300  0.36915600  1
  C  516  1  0.37322700  0.12788800  0.34666700  1
  C  517  1  0.36254900  0.10641000  0.34793200  1
  C  518  1  0.39011900  0.08872700  0.34694300  1
  C  519  1  0.38602000  0.07139100  0.36248000  1
  C  520  1  0.42055000  0.08660800  0.33021900  1
  C  521  1  0.44574000  0.06758100  0.32895900  1
  C  522  1  0.44091000  0.04999500  0.34419800  1
  C  523  1  0.41105200  0.05242300  0.36116800  1
  C  524  1  0.31385100  0.19825800  0.32221000  1
  C  525  1  0.31382300  0.19624700  0.30003900  1
  C  526  1  0.31415800  0.21408100  0.28555600  1
  C  527  1  0.28116300  0.22941000  0.28470500  1
  C  528  1  0.34685800  0.21634900  0.27021800  1
  C  529  1  0.34651800  0.23346100  0.25442800  1
  C  530  1  0.31330300  0.24873900  0.25317200  1
  C  531  1  0.28084700  0.24646200  0.26880400  1
  C  553  1  0.16687300  0.46874100  0.15810600  1
  C  554  1  0.19878400  0.46520900  0.14244400  1
  C  555  1  0.22075000  0.44511000  0.14174500  1
  C  556  1  0.21196400  0.42788600  0.15689800  1
  C  557  1  0.17980200  0.43127800  0.17241200  1
  C  558  1  0.15769000  0.45136000  0.17301700  1
  C  559  1  0.23266100  0.40764300  0.15614000  1
  C  560  1  0.27397400  0.40554400  0.15412200  1
  C  561  1  0.29455400  0.38540700  0.15254100  1
  C  562  1  0.29275500  0.36947600  0.16966000  1
  C  563  1  0.31637800  0.34979400  0.16857500  1
  C  564  1  0.34262600  0.34633500  0.15013900  1
  C  565  1  0.34498200  0.36195500  0.13277900  1
  C  566  1  0.32108700  0.38151800  0.13435000  1
  C  567  1  0.37291100  0.35894200  0.11548800  1
  C  568  1  0.36223900  0.36035300  0.09402100  1
  C  569  1  0.38982800  0.35932600  0.07634800  1
  C  570  1  0.38589900  0.37490200  0.05903400  1
  C  571  1  0.42025600  0.34259300  0.07426400  1
  C  572  1  0.44560000  0.34135600  0.05529300  1
  C  573  1  0.44089800  0.35661800  0.03772200  1
  C  574  1  0.41106400  0.37360500  0.04011500  1
  C  575  1  0.31663800  0.33520400  0.18635300  1
  C  576  1  0.30664100  0.31364900  0.18468800  1
  C  577  1  0.30874900  0.29831900  0.20194700  1
  C  578  1  0.29636500  0.30329800  0.22385600  1
  C  579  1  0.32232200  0.27653400  0.19744400  1
  C  580  1  0.32397800  0.26043500  0.21423700  1
  C  581  1  0.31203700  0.26537300  0.23624600  1
  C  582  1  0.29811100  0.28715900  0.24065900  1
  C  604  1  0.16669000  0.55023100  0.83635500  1
  C  605  1  0.19852400  0.55377800  0.85205900  1
  C  606  1  0.22030100  0.57393000  0.85285400  1
  C  607  1  0.21142800  0.59117900  0.83774100  1
  C  608  1  0.17939600  0.58775800  0.82216100  1
  C  609  1  0.15744500  0.56762900  0.82147400  1
  C  610  1  0.23197300  0.61145500  0.83857700  1
  C  611  1  0.27328700  0.61360100  0.84052300  1
  C  612  1  0.29386300  0.63374400  0.84210300  1
  C  613  1  0.29125000  0.64991100  0.82523800  1
  C  614  1  0.31499700  0.66959700  0.82610600  1
  C  615  1  0.34217400  0.67270000  0.84427000  1
  C  616  1  0.34503500  0.65697700  0.86151200  1
  C  617  1  0.32106500  0.63744800  0.86003100  1
  C  618  1  0.37318100  0.65993300  0.87871300  1
  C  619  1  0.36255200  0.65868000  0.90019800  1
  C  620  1  0.39016300  0.65967500  0.91786000  1
  C  621  1  0.38612500  0.64413000  0.93519600  1
  C  622  1  0.42060000  0.67640100  0.91995700  1
  C  623  1  0.44582000  0.67767100  0.93897200  1
  C  624  1  0.44100000  0.66244700  0.95657000  1
  C  625  1  0.41117900  0.64545500  0.95415300  1
  C  626  1  0.31373100  0.68440400  0.80837600  1
  C  627  1  0.31374600  0.70657600  0.81039500  1
  C  628  1  0.31408700  0.72106600  0.79256600  1
  C  629  1  0.28104900  0.72196400  0.77726600  1
  C  630  1  0.34680900  0.73639200  0.79030300  1
  C  631  1  0.34647100  0.75220200  0.77321100  1
  C  632  1  0.31323800  0.75348700  0.75794600  1
  C  633  1  0.28073900  0.73788400  0.76023400  1
  C  655  1  0.16686000  0.17037600  0.53795200  1
  C  656  1  0.19865700  0.15465600  0.54151600  1
  C  657  1  0.22041300  0.15386000  0.56167400  1
  C  658  1  0.21153900  0.16898500  0.57891000  1
  C  659  1  0.17952900  0.18457400  0.57547800  1
  C  660  1  0.15761200  0.18526800  0.55534100  1
  C  661  1  0.23206600  0.16815100  0.59918600  1
  C  662  1  0.27338600  0.16624400  0.60133200  1
  C  663  1  0.29394400  0.16465600  0.62147700  1
  C  664  1  0.29132400  0.18151100  0.63765100  1
  C  665  1  0.31508400  0.18062900  0.65733300  1
  C  666  1  0.34223600  0.16245500  0.66043700  1
  C  667  1  0.34508700  0.14522300  0.64470200  1
  C  668  1  0.32111800  0.14671400  0.62517400  1
  C  669  1  0.37319000  0.12800200  0.64765400  1
  C  670  1  0.36250300  0.10652700  0.64639700  1
  C  671  1  0.39006700  0.08884500  0.64738200  1
  C  672  1  0.38597700  0.07151300  0.63183600  1
  C  673  1  0.42056000  0.08674700  0.66407800  1
  C  674  1  0.44574300  0.06771800  0.66533700  1
  C  675  1  0.44090400  0.05013400  0.65009900  1
  C  676  1  0.41101800  0.05255000  0.63314000  1
  C  677  1  0.31378900  0.19834300  0.67215600  1
  C  678  1  0.31372100  0.19630100  0.69432400  1
  C  679  1  0.31406500  0.21412100  0.70882400  1
  C  680  1  0.28108300  0.22945400  0.70968900  1
  C  681  1  0.34677500  0.21636900  0.72416000  1
  C  682  1  0.34645900  0.23346900  0.73995900  1
  C  683  1  0.31325700  0.24875600  0.74122800  1
  C  684  1  0.28077600  0.24648500  0.72560900  1
  C  706  1  0.16697500  0.84865500  0.45645900  1
  C  707  1  0.19882100  0.86434900  0.45290700  1
  C  708  1  0.22056100  0.86514600  0.43274400  1
  C  709  1  0.21163500  0.85004400  0.41549400  1
  C  710  1  0.17958200  0.83447800  0.41891900  1
  C  711  1  0.15767400  0.83378600  0.43905900  1
  C  712  1  0.23211900  0.85089600  0.39520400  1
  C  713  1  0.27342900  0.85281600  0.39303200  1
  C  714  1  0.29394100  0.85441800  0.37287500  1
  C  715  1  0.29135500  0.83755500  0.35670900  1
  C  716  1  0.31507400  0.83844400  0.33701400  1
  C  717  1  0.34220500  0.85662800  0.33390700  1
  C  718  1  0.34505300  0.87386600  0.34963700  1
  C  719  1  0.32111500  0.87235900  0.36917400  1
  C  720  1  0.37317800  0.89108000  0.34669300  1
  C  721  1  0.36254900  0.91256200  0.34802100  1
  C  722  1  0.39013200  0.93023800  0.34704500  1
  C  723  1  0.38602600  0.94757800  0.36257900  1
  C  724  1  0.42062800  0.93233800  0.33035000  1
  C  725  1  0.44585700  0.95135200  0.32910900  1
  C  726  1  0.44097200  0.96895400  0.34432300  1
  C  727  1  0.41106700  0.96654300  0.36127300  1
  C  728  1  0.31383300  0.82071400  0.32220800  1
  C  729  1  0.31380200  0.82273200  0.30003600  1
  C  730  1  0.31415500  0.80490100  0.28554900  1
  C  731  1  0.28117300  0.78956800  0.28468300  1
  C  732  1  0.34684300  0.80266300  0.27019800  1
  C  733  1  0.34652400  0.78556000  0.25439900  1
  C  734  1  0.31333700  0.77026300  0.25314300  1
  C  735  1  0.28086900  0.77253100  0.26876700  1
  C  757  1  0.94096500  0.46866700  0.83625300  1
  C  758  1  0.90905400  0.46514000  0.85191600  1
  C  759  1  0.88711000  0.44503600  0.85262500  1
  C  760  1  0.89587800  0.42781800  0.83746000  1
  C  761  1  0.92801800  0.43121300  0.82193500  1
  C  762  1  0.95013600  0.45129200  0.82133300  1
  C  763  1  0.87517600  0.40758200  0.83822000  1
  C  764  1  0.83386000  0.40549600  0.84022700  1
  C  765  1  0.81326900  0.38536400  0.84181400  1
  C  766  1  0.81512100  0.36942400  0.82470700  1
  C  767  1  0.79152700  0.34973300  0.82580300  1
  C  768  1  0.76530900  0.34626100  0.84424900  1
  C  769  1  0.76293600  0.36188300  0.86160300  1
  C  770  1  0.78677800  0.38146300  0.86001800  1
  C  771  1  0.73505100  0.35885600  0.87890900  1
  C  772  1  0.74578700  0.36024600  0.90036800  1
  C  773  1  0.71823100  0.35923000  0.91805700  1
  C  774  1  0.72219700  0.37481000  0.93536500  1
  C  775  1  0.68779800  0.34250200  0.92016100  1
  C  776  1  0.66247200  0.34127800  0.93913800  1
  C  777  1  0.66721200  0.35654500  0.95670200  1
  C  778  1  0.69706300  0.37352300  0.95429500  1
  C  779  1  0.79127900  0.33514900  0.80802200  1
  C  780  1  0.80144000  0.31361700  0.80967700  1
  C  781  1  0.79934700  0.29829400  0.79241600  1
  C  782  1  0.81173800  0.30329000  0.77051100  1
  C  783  1  0.78577200  0.27650800  0.79690900  1
  C  784  1  0.78410000  0.26042300  0.78010400  1
  C  785  1  0.79606400  0.26537500  0.75810500  1
  C  786  1  0.80999600  0.28716100  0.75369900  1
  C  808  1  0.94106800  0.55031600  0.15812500  1
  C  809  1  0.90914200  0.55384100  0.14247000  1
  C  810  1  0.88717500  0.57393800  0.14176600  1
  C  811  1  0.89595500  0.59116400  0.15691800  1
  C  812  1  0.92812900  0.58778100  0.17242700  1
  C  813  1  0.95025900  0.56770200  0.17302800  1
  C  814  1  0.87524800  0.61140400  0.15616400  1
  C  815  1  0.83393500  0.61350100  0.15413600  1
  C  816  1  0.81335100  0.63364000  0.15256400  1
  C  817  1  0.81517700  0.64956400  0.16968400  1
  C  818  1  0.79159000  0.66925800  0.16859700  1
  C  819  1  0.76538000  0.67274200  0.15014900  1
  C  820  1  0.76299500  0.65712400  0.13279000  1
  C  821  1  0.78685300  0.63754700  0.13436200  1
  C  822  1  0.73509100  0.66015600  0.11549000  1
  C  823  1  0.74578900  0.65874700  0.09402700  1
  C  824  1  0.71822600  0.65977900  0.07634200  1
  C  825  1  0.72214200  0.64418300  0.05904800  1
  C  826  1  0.68780700  0.67651500  0.07424100  1
  C  827  1  0.66247800  0.67774400  0.05526400  1
  C  828  1  0.66718400  0.66246900  0.03770300  1
  C  829  1  0.69700400  0.64547500  0.04012000  1
  C  830  1  0.79134300  0.68384500  0.18637800  1
  C  831  1  0.80145900  0.70538300  0.18472500  1
  C  832  1  0.79938500  0.72070700  0.20198900  1
  C  833  1  0.81177500  0.71570900  0.22389600  1
  C  834  1  0.78579800  0.74249100  0.19750200  1
  C  835  1  0.78414300  0.75857900  0.21430700  1
  C  836  1  0.79609600  0.75362300  0.23630800  1
  C  837  1  0.81003200  0.73183600  0.24070900  1
  C  859  1  0.94119800  0.17036800  0.45639000  1
  C  860  1  0.90939800  0.15464600  0.45284200  1
  C  861  1  0.88762800  0.15384200  0.43268900  1
  C  862  1  0.89647400  0.16896500  0.41544700  1
  C  863  1  0.92848400  0.18455800  0.41886500  1
  C  864  1  0.95043000  0.18525300  0.43899400  1
  C  865  1  0.87594700  0.16811300  0.39516900  1
  C  866  1  0.83463500  0.16616400  0.39302600  1
  C  867  1  0.81406800  0.16457800  0.37288400  1
  C  868  1  0.81665400  0.18144600  0.35672200  1
  C  869  1  0.79292000  0.18056600  0.33703200  1
  C  870  1  0.76579700  0.16238100  0.33391900  1
  C  871  1  0.76296000  0.14513700  0.34964300  1
  C  872  1  0.78691500  0.14663100  0.36917400  1
  C  873  1  0.73485700  0.12791600  0.34668400  1
  C  874  1  0.74553300  0.10643800  0.34795800  1
  C  875  1  0.71796400  0.08875500  0.34698600  1
  C  876  1  0.72212000  0.07140200  0.36250300  1
  C  877  1  0.68744200  0.08665900  0.33030500  1
  C  878  1  0.66223100  0.06764100  0.32906100  1
  C  879  1  0.66716600  0.05002600  0.34425700  1
  C  880  1  0.69709000  0.05243300  0.36119800  1
  C  881  1  0.79416700  0.19830000  0.32223100  1
  C  882  1  0.79418900  0.19629000  0.30006000  1
  C  883  1  0.79387600  0.21412900  0.28558400  1
  C  884  1  0.82693300  0.22941800  0.28470300  1
  C  885  1  0.76116100  0.21641900  0.27025700  1
  C  886  1  0.76152600  0.23352900  0.25446600  1
  C  887  1  0.79478100  0.24877900  0.25319700  1
  C  888  1  0.82727600  0.24646300  0.26879800  1
  C  910  1  0.94132200  0.84872600  0.53803000  1
  C  911  1  0.90949400  0.86443400  0.54156800  1
  C  912  1  0.88768000  0.86521900  0.56171000  1
  C  913  1  0.89653300  0.85010200  0.57895700  1
  C  914  1  0.92857000  0.83452200  0.57554600  1
  C  915  1  0.95054500  0.83383900  0.55542600  1
  C  916  1  0.87597000  0.85093600  0.59922600  1
  C  917  1  0.83465400  0.85287800  0.60135900  1
  C  918  1  0.81406900  0.85446600  0.62149900  1
  C  919  1  0.81667700  0.83761100  0.63767500  1
  C  920  1  0.79292400  0.83849300  0.65735800  1
  C  921  1  0.76575900  0.85666300  0.66045300  1
  C  922  1  0.76291100  0.87389800  0.64471900  1
  C  923  1  0.78689500  0.87240800  0.62519600  1
  C  924  1  0.73478700  0.89111400  0.64766500  1
  C  925  1  0.74543500  0.91259600  0.64638400  1
  C  926  1  0.71784800  0.93027100  0.64736900  1
  C  927  1  0.72196200  0.94762200  0.63184800  1
  C  928  1  0.68738300  0.93237300  0.66408000  1
  C  929  1  0.66218100  0.95139600  0.66534200  1
  C  930  1  0.66703600  0.96899600  0.65012300  1
  C  931  1  0.69692300  0.96658600  0.63316200  1
  C  932  1  0.79418500  0.82076500  0.67216700  1
  C  933  1  0.79421700  0.82278900  0.69433800  1
  C  934  1  0.79388300  0.80496100  0.70883100  1
  C  935  1  0.82686200  0.78962300  0.70967900  1
  C  936  1  0.76120000  0.80271100  0.72418200  1
  C  937  1  0.76153300  0.78560300  0.73997500  1
  C  938  1  0.79472200  0.77030800  0.74122100  1
  C  939  1  0.82716200  0.77256900  0.72557800  1
