# generated using pymatgen
data_H32C49(NO)8
_symmetry_space_group_name_H-M   'P 1'
_cell_length_a   42.34840000
_cell_length_b   42.34840000
_cell_length_c   55.22620000
_cell_angle_alpha   90.00000000
_cell_angle_beta   90.00000000
_cell_angle_gamma   90.00000000
_symmetry_Int_Tables_number   1
_chemical_formula_structural   H32C49(NO)8
_chemical_formula_sum   'H512 C784 N128 O128'
_cell_volume   99041.94817626
_cell_formula_units_Z   16
loop_
 _symmetry_equiv_pos_site_id
 _symmetry_equiv_pos_as_xyz
  1  'x, y, z'
loop_
 _atom_site_type_symbol
 _atom_site_label
 _atom_site_symmetry_multiplicity
 _atom_site_fract_x
 _atom_site_fract_y
 _atom_site_fract_z
 _atom_site_occupancy
  H  26  1  0.19237000  0.06516000  0.18258700  1
  H  27  1  0.22382400  0.02724100  0.16222000  1
  H  28  1  0.26392700  0.07680200  0.23486800  1
  H  29  1  0.29536600  0.03858300  0.21463200  1
  H  30  1  0.28953900  0.97521500  0.21853700  1
  H  31  1  0.25910300  0.93603000  0.23856800  1
  H  32  1  0.19919100  0.92992100  0.17778400  1
  H  33  1  0.23018000  0.96796100  0.15750200  1
  H  34  1  0.29081800  0.95346400  0.14128600  1
  H  35  1  0.29071200  0.95268500  0.09827100  1
  H  36  1  0.27684900  0.05127300  0.09728100  1
  H  37  1  0.27657700  0.05202400  0.14020100  1
  H  38  1  0.32422000  0.05208200  0.17065100  1
  H  39  1  0.32529900  0.95358900  0.18161500  1
  H  40  1  0.38119300  0.95465200  0.18409400  1
  H  41  1  0.38027200  0.05304300  0.17281900  1
  H  67  1  0.81310200  0.93384600  0.17882600  1
  H  68  1  0.78148800  0.97147700  0.15827400  1
  H  69  1  0.75193600  0.93807500  0.23892800  1
  H  70  1  0.72046400  0.97629400  0.21850100  1
  H  71  1  0.71464300  0.03935500  0.21493400  1
  H  72  1  0.74513500  0.07875300  0.23464800  1
  H  73  1  0.81593400  0.06918600  0.18148300  1
  H  74  1  0.78503500  0.03079200  0.16132600  1
  H  75  1  0.73030100  0.05347600  0.14024200  1
  H  76  1  0.72987400  0.05270700  0.09729600  1
  H  77  1  0.72162100  0.95349300  0.09831600  1
  H  78  1  0.72216900  0.95421300  0.14139900  1
  H  79  1  0.68576600  0.95420300  0.18151200  1
  H  80  1  0.68481200  0.05278000  0.17114100  1
  H  81  1  0.62888100  0.05243200  0.17243700  1
  H  82  1  0.63002600  0.95415800  0.18448300  1
  H  108  1  0.94237000  0.19071600  0.68278400  1
  H  109  1  0.98022300  0.22217600  0.66235500  1
  H  110  1  0.93115400  0.26210900  0.73525200  1
  H  111  1  0.96932800  0.29354100  0.71495400  1
  H  112  1  0.03269100  0.28792100  0.71862900  1
  H  113  1  0.07188600  0.25747100  0.73862700  1
  H  114  1  0.07756300  0.19729900  0.67796900  1
  H  115  1  0.03949500  0.22829400  0.65772900  1
  H  116  1  0.05412300  0.28867000  0.64131500  1
  H  117  1  0.05467300  0.28855400  0.59830400  1
  H  118  1  0.95594600  0.27570100  0.59763100  1
  H  119  1  0.95544800  0.27530200  0.64054300  1
  H  120  1  0.95555900  0.32252200  0.67108700  1
  H  121  1  0.05414600  0.32353700  0.68148400  1
  H  122  1  0.05315600  0.37944000  0.68390500  1
  H  123  1  0.95466400  0.37857600  0.67316700  1
  H  149  1  0.07391400  0.81134800  0.67849500  1
  H  150  1  0.03622800  0.77973200  0.65801200  1
  H  151  1  0.06976200  0.75027400  0.73865100  1
  H  152  1  0.03149200  0.71879400  0.71829100  1
  H  153  1  0.96840000  0.71286300  0.71480000  1
  H  154  1  0.92902900  0.74335700  0.73454900  1
  H  155  1  0.93860900  0.81421500  0.68142800  1
  H  156  1  0.97695300  0.78331100  0.66122700  1
  H  157  1  0.95403800  0.72844500  0.64023000  1
  H  158  1  0.95456700  0.72798900  0.59727400  1
  H  159  1  0.05382000  0.72015900  0.59796200  1
  H  160  1  0.05333600  0.72059100  0.64105900  1
  H  161  1  0.05357500  0.68406600  0.68127600  1
  H  162  1  0.95496600  0.68304800  0.67106500  1
  H  163  1  0.95534900  0.62712400  0.67238500  1
  H  164  1  0.05365000  0.62832800  0.68430200  1
  H  190  1  0.81178200  0.07433800  0.82846700  1
  H  191  1  0.78023500  0.03652900  0.84857100  1
  H  192  1  0.75063000  0.07111900  0.76828200  1
  H  193  1  0.71959000  0.03224000  0.78811300  1
  H  194  1  0.71483000  0.96910800  0.79053200  1
  H  195  1  0.74592600  0.93060900  0.77027700  1
  H  196  1  0.81596700  0.93891300  0.82411900  1
  H  197  1  0.78494800  0.97722400  0.84438100  1
  H  198  1  0.73173700  0.95328000  0.86534600  1
  H  199  1  0.73196800  0.95325400  0.90823300  1
  H  200  1  0.71854400  0.05193200  0.90834700  1
  H  201  1  0.71994700  0.05218500  0.86537700  1
  H  202  1  0.68504600  0.05337100  0.82698600  1
  H  203  1  0.68466100  0.95411100  0.83288700  1
  H  204  1  0.62848400  0.95417500  0.83060000  1
  H  205  1  0.62898900  0.05338000  0.82491200  1
  H  231  1  0.19939600  0.92959800  0.82882000  1
  H  232  1  0.23119300  0.96681800  0.84915100  1
  H  233  1  0.25645300  0.93837000  0.76663000  1
  H  234  1  0.28739700  0.97710400  0.78664600  1
  H  235  1  0.29690400  0.04098400  0.79252500  1
  H  236  1  0.26579000  0.07950200  0.77234100  1
  H  237  1  0.19188500  0.06434300  0.82211500  1
  H  238  1  0.22293800  0.02606000  0.84237900  1
  H  239  1  0.27287400  0.05165000  0.86597800  1
  H  240  1  0.27273700  0.05046800  0.90880000  1
  H  241  1  0.29487500  0.95339300  0.90736000  1
  H  242  1  0.29356700  0.95422500  0.86432500  1
  H  243  1  0.32461000  0.95407100  0.82073100  1
  H  244  1  0.32482000  0.05100800  0.83803600  1
  H  245  1  0.38081000  0.05111800  0.83686700  1
  H  246  1  0.38023100  0.95479100  0.81768700  1
  H  272  1  0.07623000  0.19610200  0.32812300  1
  H  273  1  0.03849500  0.22764900  0.34829300  1
  H  274  1  0.07279000  0.25722100  0.26792300  1
  H  275  1  0.03395200  0.28824700  0.28781800  1
  H  276  1  0.97081300  0.29308800  0.29046200  1
  H  277  1  0.93226600  0.26197400  0.27027700  1
  H  278  1  0.94080500  0.19191900  0.32408500  1
  H  279  1  0.97918900  0.22294200  0.34426400  1
  H  280  1  0.95551400  0.27589700  0.36543700  1
  H  281  1  0.95591500  0.27559200  0.40832200  1
  H  282  1  0.05451500  0.28960500  0.40786600  1
  H  283  1  0.05435400  0.28819500  0.36490800  1
  H  284  1  0.05520800  0.32286700  0.32644800  1
  H  285  1  0.95601200  0.32319000  0.33300700  1
  H  286  1  0.95602900  0.37938100  0.33076100  1
  H  287  1  0.05516300  0.37892300  0.32438900  1
  H  313  1  0.93135500  0.80840600  0.32920400  1
  H  314  1  0.96864500  0.77660300  0.34946600  1
  H  315  1  0.94007500  0.75146600  0.26694600  1
  H  316  1  0.97886500  0.72052300  0.28689100  1
  H  317  1  0.04281300  0.71090000  0.29268500  1
  H  318  1  0.08131500  0.74196600  0.27243400  1
  H  319  1  0.06612800  0.81604200  0.32205500  1
  H  320  1  0.02787400  0.78503500  0.34239900  1
  H  321  1  0.05383100  0.73501700  0.36589300  1
  H  322  1  0.05306200  0.73512300  0.40871700  1
  H  323  1  0.95595500  0.71308900  0.40782600  1
  H  324  1  0.95637300  0.71439000  0.36477400  1
  H  325  1  0.95588900  0.68331000  0.32103400  1
  H  326  1  0.05289800  0.68303600  0.33810000  1
  H  327  1  0.05297500  0.62705100  0.33690300  1
  H  328  1  0.95657900  0.62769800  0.31792900  1
  H  335  1  0.25080500  0.96453700  0.94119900  1
  H  342  1  0.32741500  0.97937500  0.06496700  1
  H  343  1  0.23994500  0.02100600  0.01841600  1
  H  344  1  0.31747600  0.03543600  0.98719400  1
  H  346  1  0.33768400  0.97043100  0.00154800  1
  H  347  1  0.35309500  0.96423200  0.02867600  1
  H  349  1  0.23284200  0.94116900  0.97764200  1
  H  350  1  0.24515000  0.95271100  0.00467500  1
  H  363  1  0.76095200  0.03692300  0.94175700  1
  H  370  1  0.68512600  0.03050200  0.06503600  1
  H  371  1  0.76604000  0.97655800  0.01888000  1
  H  372  1  0.68954900  0.97023000  0.98726600  1
  H  374  1  0.67554100  0.03891000  0.00145000  1
  H  375  1  0.66127400  0.04781700  0.02850900  1
  H  377  1  0.78052500  0.05849000  0.97837400  1
  H  378  1  0.76756800  0.04732300  0.00532600  1
  H  391  1  0.04041300  0.24736000  0.44131700  1
  H  398  1  0.02867800  0.32528300  0.56508100  1
  H  399  1  0.98490600  0.23881200  0.51860900  1
  H  400  1  0.97318400  0.31766200  0.48732800  1
  H  402  1  0.03787000  0.33528800  0.50167800  1
  H  403  1  0.04441700  0.35055400  0.52880100  1
  H  405  1  0.06301000  0.22835600  0.47767900  1
  H  406  1  0.05228300  0.24131700  0.50472400  1
  H  419  1  0.96769800  0.75728400  0.44166500  1
  H  426  1  0.97766100  0.68277900  0.56495800  1
  H  427  1  0.02926500  0.76511700  0.51868800  1
  H  428  1  0.03866700  0.69001600  0.48711400  1
  H  430  1  0.96946900  0.67289900  0.50135800  1
  H  431  1  0.96097300  0.65840500  0.52843000  1
  H  433  1  0.94515700  0.77562300  0.47836000  1
  H  434  1  0.95722300  0.76340500  0.50529200  1
  H  447  1  0.16968500  0.06295600  0.22917000  1
  H  454  1  0.13382100  0.20298100  0.31186300  1
  H  455  1  0.11006400  0.16034800  0.23266800  1
  H  456  1  0.19941400  0.17185300  0.24289400  1
  H  458  1  0.19132600  0.14835200  0.29136700  1
  H  459  1  0.18043200  0.17240000  0.31344300  1
  H  461  1  0.12204600  0.07122700  0.25054200  1
  H  462  1  0.11270900  0.10542100  0.26312700  1
  H  475  1  0.84140800  0.94400000  0.22788300  1
  H  482  1  0.87577300  0.80286600  0.31122900  1
  H  483  1  0.90127600  0.84797500  0.23320400  1
  H  484  1  0.81066800  0.83586100  0.24384100  1
  H  486  1  0.81891100  0.85833700  0.29122600  1
  H  487  1  0.82929700  0.83346000  0.31288900  1
  H  489  1  0.88920700  0.93589100  0.24912400  1
  H  490  1  0.89833100  0.90204800  0.26232600  1
  H  503  1  0.94483100  0.16794100  0.72941400  1
  H  510  1  0.80490800  0.13201500  0.81225200  1
  H  511  1  0.84750300  0.10832000  0.73303200  1
  H  512  1  0.83597700  0.19768200  0.74332400  1
  H  514  1  0.85950800  0.18955200  0.79175200  1
  H  515  1  0.83547400  0.17864000  0.81383400  1
  H  517  1  0.93661100  0.12029200  0.75078600  1
  H  518  1  0.90245200  0.11095400  0.76342500  1
  H  531  1  0.06386700  0.83972200  0.72752200  1
  H  538  1  0.20499000  0.87403300  0.81085900  1
  H  539  1  0.15996200  0.89955000  0.73280900  1
  H  540  1  0.17199700  0.80893900  0.74346900  1
  H  542  1  0.14949800  0.81720900  0.79084300  1
  H  543  1  0.17436700  0.82758200  0.81251200  1
  H  545  1  0.07201300  0.88753700  0.74873300  1
  H  546  1  0.10586700  0.89665900  0.76191700  1
  H  559  1  0.84079200  0.94102000  0.77881600  1
  H  566  1  0.87789300  0.80779900  0.69215700  1
  H  567  1  0.89435000  0.83826300  0.77566000  1
  H  568  1  0.80737100  0.83406900  0.76147100  1
  H  570  1  0.82098200  0.86274500  0.71329900  1
  H  571  1  0.83320200  0.84123300  0.69010500  1
  H  573  1  0.88943800  0.93135500  0.75910700  1
  H  574  1  0.89813700  0.89715300  0.74624500  1
  H  587  1  0.17130100  0.06367600  0.77532200  1
  H  594  1  0.13470200  0.20503800  0.69472100  1
  H  595  1  0.11062800  0.16071800  0.77331400  1
  H  596  1  0.19959600  0.17351200  0.76453200  1
  H  598  1  0.19287700  0.15108700  0.71519600  1
  H  599  1  0.18186300  0.17526300  0.69323400  1
  H  601  1  0.12413500  0.07200100  0.75335600  1
  H  602  1  0.11457200  0.10652500  0.74141400  1
  H  615  1  0.06541000  0.83643500  0.27517900  1
  H  622  1  0.20693700  0.87291100  0.19470500  1
  H  623  1  0.16235400  0.89723500  0.27316500  1
  H  624  1  0.17530700  0.80824700  0.26458600  1
  H  626  1  0.15300100  0.81474600  0.21521800  1
  H  627  1  0.17722500  0.82571000  0.19327000  1
  H  629  1  0.07371600  0.88353000  0.25311700  1
  H  630  1  0.10825500  0.89309800  0.24120200  1
  H  643  1  0.94277200  0.16707800  0.27883500  1
  H  650  1  0.80947800  0.12993700  0.19222000  1
  H  651  1  0.84007900  0.11345700  0.27569100  1
  H  652  1  0.83581400  0.20047700  0.26149200  1
  H  654  1  0.86440500  0.18688600  0.21333500  1
  H  655  1  0.84286300  0.17466500  0.19015800  1
  H  657  1  0.93310900  0.11842100  0.25914700  1
  H  658  1  0.89891200  0.10971600  0.24628100  1
  H  671  1  0.42420700  0.02342000  0.14451800  1
  H  678  1  0.58560900  0.04060300  0.20391800  1
  H  679  1  0.52537300  0.96827900  0.15432600  1
  H  680  1  0.48372500  0.98678100  0.21384900  1
  H  682  1  0.50300300  0.05314300  0.20788100  1
  H  683  1  0.53832900  0.06478600  0.21705600  1
  H  685  1  0.47185900  0.03620000  0.12438800  1
  H  686  1  0.50706700  0.03075000  0.13669100  1
  H  699  1  0.98430400  0.42243100  0.64457800  1
  H  706  1  0.96721000  0.58390100  0.70383600  1
  H  707  1  0.03953900  0.52360600  0.65429000  1
  H  708  1  0.02110200  0.48203000  0.71382400  1
  H  710  1  0.95468000  0.50129900  0.70786100  1
  H  711  1  0.94302900  0.53663600  0.71700700  1
  H  713  1  0.97153300  0.47006700  0.62441500  1
  H  714  1  0.97702600  0.50528900  0.63668500  1
  H  727  1  0.58596800  0.01626100  0.86363800  1
  H  734  1  0.42454500  0.04355800  0.80519900  1
  H  735  1  0.48450700  0.96486700  0.84892300  1
  H  736  1  0.52645600  0.99309700  0.79090300  1
  H  738  1  0.50710700  0.05683000  0.80279800  1
  H  739  1  0.47182900  0.06953800  0.79439800  1
  H  741  1  0.53824000  0.02517400  0.88495300  1
  H  742  1  0.50304800  0.02251900  0.87210200  1
  H  755  1  0.01786400  0.42182900  0.36355700  1
  H  762  1  0.04535900  0.58338400  0.30528100  1
  H  763  1  0.96667600  0.52332800  0.34893200  1
  H  764  1  0.99508100  0.48149400  0.29082600  1
  H  766  1  0.05866900  0.50083600  0.30280700  1
  H  767  1  0.07136100  0.53613300  0.29444200  1
  H  769  1  0.02670900  0.46950700  0.38495100  1
  H  770  1  0.02415600  0.50472300  0.37213300  1
  H  802  1  0.57018800  0.51381900  0.18258700  1
  H  803  1  0.60164200  0.47590000  0.16222000  1
  H  804  1  0.64174500  0.52546100  0.23486800  1
  H  805  1  0.67318400  0.48724200  0.21463200  1
  H  806  1  0.66735700  0.42387400  0.21853700  1
  H  807  1  0.63692100  0.38468900  0.23856800  1
  H  808  1  0.57700900  0.37858000  0.17778400  1
  H  809  1  0.60799800  0.41662000  0.15750200  1
  H  810  1  0.66863600  0.40212300  0.14128600  1
  H  811  1  0.66853000  0.40134400  0.09827100  1
  H  812  1  0.65466700  0.49993200  0.09728100  1
  H  813  1  0.65439500  0.50068300  0.14020100  1
  H  814  1  0.70203800  0.50074100  0.17065100  1
  H  815  1  0.70311700  0.40224800  0.18161500  1
  H  816  1  0.75901100  0.40331100  0.18409400  1
  H  817  1  0.75809000  0.50170200  0.17281900  1
  H  843  1  0.19092000  0.38250500  0.17882600  1
  H  844  1  0.15930600  0.42013600  0.15827400  1
  H  845  1  0.12975400  0.38673400  0.23892800  1
  H  846  1  0.09828230  0.42495300  0.21850100  1
  H  847  1  0.09246130  0.48801400  0.21493400  1
  H  848  1  0.12295300  0.52741200  0.23464800  1
  H  849  1  0.19375200  0.51784500  0.18148300  1
  H  850  1  0.16285300  0.47945100  0.16132600  1
  H  851  1  0.10811900  0.50213500  0.14024200  1
  H  852  1  0.10769200  0.50136600  0.09729600  1
  H  853  1  0.09943930  0.40215200  0.09831600  1
  H  854  1  0.09998730  0.40287200  0.14139900  1
  H  855  1  0.06358430  0.40286200  0.18151200  1
  H  856  1  0.06263030  0.50143900  0.17114100  1
  H  857  1  0.00669929  0.50109100  0.17243700  1
  H  858  1  0.00784429  0.40281700  0.18448300  1
  H  884  1  0.32018800  0.63937500  0.68278400  1
  H  885  1  0.35804100  0.67083500  0.66235500  1
  H  886  1  0.30897200  0.71076800  0.73525200  1
  H  887  1  0.34714600  0.74220000  0.71495400  1
  H  888  1  0.41050900  0.73658000  0.71862900  1
  H  889  1  0.44970400  0.70613000  0.73862700  1
  H  890  1  0.45538100  0.64595800  0.67796900  1
  H  891  1  0.41731300  0.67695300  0.65772900  1
  H  892  1  0.43194100  0.73732900  0.64131500  1
  H  893  1  0.43249100  0.73721300  0.59830400  1
  H  894  1  0.33376400  0.72436000  0.59763100  1
  H  895  1  0.33326600  0.72396100  0.64054300  1
  H  896  1  0.33337700  0.77118100  0.67108700  1
  H  897  1  0.43196400  0.77219600  0.68148400  1
  H  898  1  0.43097400  0.82809900  0.68390500  1
  H  899  1  0.33248200  0.82723500  0.67316700  1
  H  925  1  0.45173200  0.26000700  0.67849500  1
  H  926  1  0.41404600  0.22839100  0.65801200  1
  H  927  1  0.44758000  0.19893300  0.73865100  1
  H  928  1  0.40931000  0.16745300  0.71829100  1
  H  929  1  0.34621800  0.16152200  0.71480000  1
  H  930  1  0.30684700  0.19201600  0.73454900  1
  H  931  1  0.31642700  0.26287400  0.68142800  1
  H  932  1  0.35477100  0.23197000  0.66122700  1
  H  933  1  0.33185600  0.17710400  0.64023000  1
  H  934  1  0.33238500  0.17664800  0.59727400  1
  H  935  1  0.43163800  0.16881800  0.59796200  1
  H  936  1  0.43115400  0.16925000  0.64105900  1
  H  937  1  0.43139300  0.13272500  0.68127600  1
  H  938  1  0.33278400  0.13170700  0.67106500  1
  H  939  1  0.33316700  0.07578320  0.67238500  1
  H  940  1  0.43146800  0.07698720  0.68430200  1
  H  966  1  0.18960000  0.52299700  0.82846700  1
  H  967  1  0.15805300  0.48518800  0.84857100  1
  H  968  1  0.12844800  0.51977800  0.76828200  1
  H  969  1  0.09740830  0.48089900  0.78811300  1
  H  970  1  0.09264830  0.41776700  0.79053200  1
  H  971  1  0.12374400  0.37926800  0.77027700  1
  H  972  1  0.19378500  0.38757200  0.82411900  1
  H  973  1  0.16276600  0.42588300  0.84438100  1
  H  974  1  0.10955500  0.40193900  0.86534600  1
  H  975  1  0.10978600  0.40191300  0.90823300  1
  H  976  1  0.09636230  0.50059100  0.90834700  1
  H  977  1  0.09776530  0.50084400  0.86537700  1
  H  978  1  0.06286430  0.50203000  0.82698600  1
  H  979  1  0.06247930  0.40277000  0.83288700  1
  H  980  1  0.00630229  0.40283400  0.83060000  1
  H  981  1  0.00680729  0.50203900  0.82491200  1
  H  1007  1  0.57721400  0.37825700  0.82882000  1
  H  1008  1  0.60901100  0.41547700  0.84915100  1
  H  1009  1  0.63427100  0.38702900  0.76663000  1
  H  1010  1  0.66521500  0.42576300  0.78664600  1
  H  1011  1  0.67472200  0.48964300  0.79252500  1
  H  1012  1  0.64360800  0.52816100  0.77234100  1
  H  1013  1  0.56970300  0.51300200  0.82211500  1
  H  1014  1  0.60075600  0.47471900  0.84237900  1
  H  1015  1  0.65069200  0.50030900  0.86597800  1
  H  1016  1  0.65055500  0.49912700  0.90880000  1
  H  1017  1  0.67269300  0.40205200  0.90736000  1
  H  1018  1  0.67138500  0.40288400  0.86432500  1
  H  1019  1  0.70242800  0.40273000  0.82073100  1
  H  1020  1  0.70263800  0.49966700  0.83803600  1
  H  1021  1  0.75862800  0.49977700  0.83686700  1
  H  1022  1  0.75804900  0.40345000  0.81768700  1
  H  1048  1  0.45404800  0.64476100  0.32812300  1
  H  1049  1  0.41631300  0.67630800  0.34829300  1
  H  1050  1  0.45060800  0.70588000  0.26792300  1
  H  1051  1  0.41177000  0.73690600  0.28781800  1
  H  1052  1  0.34863100  0.74174700  0.29046200  1
  H  1053  1  0.31008400  0.71063300  0.27027700  1
  H  1054  1  0.31862300  0.64057800  0.32408500  1
  H  1055  1  0.35700700  0.67160100  0.34426400  1
  H  1056  1  0.33333333  0.72455600  0.36543700  1
  H  1057  1  0.33373300  0.72425100  0.40832200  1
  H  1058  1  0.43233300  0.73826400  0.40786600  1
  H  1059  1  0.43217200  0.73685400  0.36490800  1
  H  1060  1  0.43302600  0.77152600  0.32644800  1
  H  1061  1  0.33383000  0.77184900  0.33300700  1
  H  1062  1  0.33384700  0.82804000  0.33076100  1
  H  1063  1  0.43298100  0.82758200  0.32438900  1
  H  1089  1  0.30917300  0.25706500  0.32920400  1
  H  1090  1  0.34646300  0.22526200  0.34946600  1
  H  1091  1  0.31789300  0.20012500  0.26694600  1
  H  1092  1  0.35668300  0.16918200  0.28689100  1
  H  1093  1  0.42063100  0.15955900  0.29268500  1
  H  1094  1  0.45913300  0.19062500  0.27243400  1
  H  1095  1  0.44394600  0.26470100  0.32205500  1
  H  1096  1  0.40569200  0.23369400  0.34239900  1
  H  1097  1  0.43164900  0.18367600  0.36589300  1
  H  1098  1  0.43088000  0.18378200  0.40871700  1
  H  1099  1  0.33377300  0.16174800  0.40782600  1
  H  1100  1  0.33419100  0.16304900  0.36477400  1
  H  1101  1  0.33370700  0.13196900  0.32103400  1
  H  1102  1  0.43071600  0.13169500  0.33810000  1
  H  1103  1  0.43079300  0.07571020  0.33690300  1
  H  1104  1  0.33439700  0.07635720  0.31792900  1
  H  1111  1  0.62862300  0.41319600  0.94119900  1
  H  1118  1  0.70523300  0.42803400  0.06496700  1
  H  1119  1  0.61776300  0.46966500  0.01841600  1
  H  1120  1  0.69529400  0.48409500  0.98719400  1
  H  1122  1  0.71550200  0.41909000  0.00154800  1
  H  1123  1  0.73091300  0.41289100  0.02867600  1
  H  1125  1  0.61066000  0.38982800  0.97764200  1
  H  1126  1  0.62296800  0.40137000  0.00467500  1
  H  1139  1  0.13877000  0.48558200  0.94175700  1
  H  1146  1  0.06294430  0.47916100  0.06503600  1
  H  1147  1  0.14385800  0.42521700  0.01888000  1
  H  1148  1  0.06736730  0.41888900  0.98726600  1
  H  1150  1  0.05335930  0.48756900  0.00145000  1
  H  1151  1  0.03909230  0.49647600  0.02850900  1
  H  1153  1  0.15834300  0.50714900  0.97837400  1
  H  1154  1  0.14538600  0.49598200  0.00532600  1
  H  1167  1  0.41823100  0.69601900  0.44131700  1
  H  1174  1  0.40649600  0.77394200  0.56508100  1
  H  1175  1  0.36272400  0.68747100  0.51860900  1
  H  1176  1  0.35100200  0.76632100  0.48732800  1
  H  1178  1  0.41568800  0.78394700  0.50167800  1
  H  1179  1  0.42223500  0.79921300  0.52880100  1
  H  1181  1  0.44082800  0.67701500  0.47767900  1
  H  1182  1  0.43010100  0.68997600  0.50472400  1
  H  1195  1  0.34551600  0.20594300  0.44166500  1
  H  1202  1  0.35547900  0.13143800  0.56495800  1
  H  1203  1  0.40708300  0.21377600  0.51868800  1
  H  1204  1  0.41648500  0.13867500  0.48711400  1
  H  1206  1  0.34728700  0.12155800  0.50135800  1
  H  1207  1  0.33879100  0.10706400  0.52843000  1
  H  1209  1  0.32297500  0.22428200  0.47836000  1
  H  1210  1  0.33504100  0.21206400  0.50529200  1
  H  1223  1  0.54750300  0.51161500  0.22917000  1
  H  1230  1  0.51163900  0.65164000  0.31186300  1
  H  1231  1  0.48788200  0.60900700  0.23266800  1
  H  1232  1  0.57723200  0.62051200  0.24289400  1
  H  1234  1  0.56914400  0.59701100  0.29136700  1
  H  1235  1  0.55825000  0.62105900  0.31344300  1
  H  1237  1  0.49986400  0.51988600  0.25054200  1
  H  1238  1  0.49052700  0.55408000  0.26312700  1
  H  1251  1  0.21922600  0.39265900  0.22788300  1
  H  1258  1  0.25359100  0.25152500  0.31122900  1
  H  1259  1  0.27909400  0.29663400  0.23320400  1
  H  1260  1  0.18848600  0.28452000  0.24384100  1
  H  1262  1  0.19672900  0.30699600  0.29122600  1
  H  1263  1  0.20711500  0.28211900  0.31288900  1
  H  1265  1  0.26702500  0.38455000  0.24912400  1
  H  1266  1  0.27614900  0.35070700  0.26232600  1
  H  1279  1  0.32264900  0.61660000  0.72941400  1
  H  1286  1  0.18272600  0.58067400  0.81225200  1
  H  1287  1  0.22532100  0.55697900  0.73303200  1
  H  1288  1  0.21379500  0.64634100  0.74332400  1
  H  1290  1  0.23732600  0.63821100  0.79175200  1
  H  1291  1  0.21329200  0.62729900  0.81383400  1
  H  1293  1  0.31442900  0.56895100  0.75078600  1
  H  1294  1  0.28027000  0.55961300  0.76342500  1
  H  1307  1  0.44168500  0.28838100  0.72752200  1
  H  1314  1  0.58280800  0.32269200  0.81085900  1
  H  1315  1  0.53778000  0.34820900  0.73280900  1
  H  1316  1  0.54981500  0.25759800  0.74346900  1
  H  1318  1  0.52731600  0.26586800  0.79084300  1
  H  1319  1  0.55218500  0.27624100  0.81251200  1
  H  1321  1  0.44983100  0.33619600  0.74873300  1
  H  1322  1  0.48368500  0.34531800  0.76191700  1
  H  1335  1  0.21861000  0.38967900  0.77881600  1
  H  1342  1  0.25571100  0.25645800  0.69215700  1
  H  1343  1  0.27216800  0.28692200  0.77566000  1
  H  1344  1  0.18518900  0.28272800  0.76147100  1
  H  1346  1  0.19880000  0.31140400  0.71329900  1
  H  1347  1  0.21102000  0.28989200  0.69010500  1
  H  1349  1  0.26725600  0.38001400  0.75910700  1
  H  1350  1  0.27595500  0.34581200  0.74624500  1
  H  1363  1  0.54911900  0.51233500  0.77532200  1
  H  1370  1  0.51252000  0.65369700  0.69472100  1
  H  1371  1  0.48844600  0.60937700  0.77331400  1
  H  1372  1  0.57741400  0.62217100  0.76453200  1
  H  1374  1  0.57069500  0.59974600  0.71519600  1
  H  1375  1  0.55968100  0.62392200  0.69323400  1
  H  1377  1  0.50195300  0.52066000  0.75335600  1
  H  1378  1  0.49239000  0.55518400  0.74141400  1
  H  1391  1  0.44322800  0.28509400  0.27517900  1
  H  1398  1  0.58475500  0.32157000  0.19470500  1
  H  1399  1  0.54017200  0.34589400  0.27316500  1
  H  1400  1  0.55312500  0.25690600  0.26458600  1
  H  1402  1  0.53081900  0.26340500  0.21521800  1
  H  1403  1  0.55504300  0.27436900  0.19327000  1
  H  1405  1  0.45153400  0.33218900  0.25311700  1
  H  1406  1  0.48607300  0.34175700  0.24120200  1
  H  1419  1  0.32059000  0.61573700  0.27883500  1
  H  1426  1  0.18729600  0.57859600  0.19222000  1
  H  1427  1  0.21789700  0.56211600  0.27569100  1
  H  1428  1  0.21363200  0.64913600  0.26149200  1
  H  1430  1  0.24222300  0.63554500  0.21333500  1
  H  1431  1  0.22068100  0.62332400  0.19015800  1
  H  1433  1  0.31092700  0.56708000  0.25914700  1
  H  1434  1  0.27673000  0.55837500  0.24628100  1
  H  1447  1  0.80202500  0.47207900  0.14451800  1
  H  1454  1  0.96342700  0.48926200  0.20391800  1
  H  1455  1  0.90319100  0.41693800  0.15432600  1
  H  1456  1  0.86154300  0.43544000  0.21384900  1
  H  1458  1  0.88082100  0.50180200  0.20788100  1
  H  1459  1  0.91614700  0.51344500  0.21705600  1
  H  1461  1  0.84967700  0.48485900  0.12438800  1
  H  1462  1  0.88488500  0.47940900  0.13669100  1
  H  1475  1  0.36212200  0.87109000  0.64457800  1
  H  1482  1  0.34502800  0.03256020  0.70383600  1
  H  1483  1  0.41735700  0.97226500  0.65429000  1
  H  1484  1  0.39892000  0.93068900  0.71382400  1
  H  1486  1  0.33249800  0.94995800  0.70786100  1
  H  1487  1  0.32084700  0.98529500  0.71700700  1
  H  1489  1  0.34935100  0.91872600  0.62441500  1
  H  1490  1  0.35484400  0.95394800  0.63668500  1
  H  1503  1  0.96378600  0.46492000  0.86363800  1
  H  1510  1  0.80236300  0.49221700  0.80519900  1
  H  1511  1  0.86232500  0.41352600  0.84892300  1
  H  1512  1  0.90427400  0.44175600  0.79090300  1
  H  1514  1  0.88492500  0.50548900  0.80279800  1
  H  1515  1  0.84964700  0.51819700  0.79439800  1
  H  1517  1  0.91605800  0.47383300  0.88495300  1
  H  1518  1  0.88086600  0.47117800  0.87210200  1
  H  1531  1  0.39568200  0.87048800  0.36355700  1
  H  1538  1  0.42317700  0.03204320  0.30528100  1
  H  1539  1  0.34449400  0.97198700  0.34893200  1
  H  1540  1  0.37289900  0.93015300  0.29082600  1
  H  1542  1  0.43648700  0.94949500  0.30280700  1
  H  1543  1  0.44917900  0.98479200  0.29444200  1
  H  1545  1  0.40452700  0.91816600  0.38495100  1
  H  1546  1  0.40197400  0.95338200  0.37213300  1
  C  1  1  0.38638000  0.00407700  0.17942400  1
  C  2  1  0.36938300  0.97558800  0.18213600  1
  C  3  1  0.33614500  0.97510600  0.18085500  1
  C  4  1  0.31803800  0.00307600  0.17764900  1
  C  5  1  0.33564200  0.03135500  0.17430100  1
  C  6  1  0.36888300  0.03196800  0.17529800  1
  C  7  1  0.28224700  0.00251700  0.17343400  1
  C  8  1  0.28124100  0.00245100  0.14570300  1
  C  9  1  0.27854900  0.03060300  0.13183600  1
  C  10  1  0.27888600  0.03029300  0.10635100  1
  C  11  1  0.28271900  0.00176800  0.09342200  1
  C  12  1  0.28735400  0.97380500  0.10691400  1
  C  13  1  0.28708300  0.97430800  0.13239600  1
  C  14  1  0.26486700  0.97453200  0.18499900  1
  C  15  1  0.26419200  0.02997700  0.18511300  1
  C  16  1  0.23332600  0.03810900  0.17704600  1
  C  17  1  0.21443800  0.06035500  0.18920500  1
  C  18  1  0.22536200  0.07542000  0.21040700  1
  C  19  1  0.25572600  0.06735900  0.21900800  1
  C  20  1  0.27440700  0.04483500  0.20683500  1
  C  21  1  0.27137500  0.96502300  0.20918300  1
  C  22  1  0.25301100  0.94219600  0.22127700  1
  C  23  1  0.22617800  0.92861800  0.21015700  1
  C  24  1  0.21901100  0.93823100  0.18627600  1
  C  25  1  0.23767100  0.96075400  0.17419100  1
  C  42  1  0.62345900  0.00329800  0.17884100  1
  C  43  1  0.64057600  0.03162400  0.17535200  1
  C  44  1  0.67383400  0.03176500  0.17460200  1
  C  45  1  0.69203100  0.00383300  0.17770500  1
  C  46  1  0.67447100  0.97548600  0.18066200  1
  C  47  1  0.64122100  0.97527400  0.18179800  1
  C  48  1  0.72782200  0.00396100  0.17348700  1
  C  49  1  0.72877800  0.00370000  0.14576100  1
  C  50  1  0.72466700  0.97522200  0.13248600  1
  C  51  1  0.72424700  0.97468800  0.10699800  1
  C  52  1  0.72662200  0.00294700  0.09355600  1
  C  53  1  0.72868100  0.03168500  0.10640800  1
  C  54  1  0.72942000  0.03197800  0.13187900  1
  C  55  1  0.74529600  0.03193700  0.18492500  1
  C  56  1  0.74582700  0.97651800  0.18524000  1
  C  57  1  0.77388200  0.96390800  0.17483600  1
  C  58  1  0.79300000  0.94190800  0.18707400  1
  C  59  1  0.78505600  0.93161000  0.21057600  1
  C  60  1  0.75773800  0.94420500  0.22155600  1
  C  61  1  0.73905900  0.96664100  0.20931500  1
  C  62  1  0.73526900  0.04622000  0.20691300  1
  C  63  1  0.75360300  0.06916300  0.21893000  1
  C  64  1  0.78348400  0.07832100  0.20992900  1
  C  65  1  0.79403900  0.06403400  0.18828200  1
  C  66  1  0.77558000  0.04123600  0.17634800  1
  C  83  1  0.00369400  0.38465400  0.67949400  1
  C  84  1  0.03219300  0.36764300  0.68208000  1
  C  85  1  0.03262900  0.33440000  0.68084700  1
  C  86  1  0.00461700  0.31629800  0.67783400  1
  C  87  1  0.97632900  0.33393000  0.67460500  1
  C  88  1  0.97575100  0.36717300  0.67555800  1
  C  89  1  0.00513800  0.28050900  0.67361800  1
  C  90  1  0.00508900  0.27948200  0.64589000  1
  C  91  1  0.97683900  0.27709900  0.63210700  1
  C  92  1  0.97700200  0.27749100  0.60662300  1
  C  93  1  0.00548700  0.28104200  0.59359500  1
  C  94  1  0.03356700  0.28539000  0.60700900  1
  C  95  1  0.03320200  0.28511100  0.63249100  1
  C  96  1  0.03315000  0.26313400  0.68514000  1
  C  97  1  0.97769600  0.26247500  0.68533000  1
  C  98  1  0.96946500  0.23164500  0.67724000  1
  C  99  1  0.94724200  0.21275800  0.68942400  1
  C  100  1  0.93232100  0.22363300  0.71070000  1
  C  101  1  0.94051200  0.25393600  0.71935200  1
  C  102  1  0.96300200  0.27261500  0.70713900  1
  C  103  1  0.04277800  0.26968400  0.70929100  1
  C  104  1  0.06561900  0.25131800  0.72136900  1
  C  105  1  0.07909000  0.22441500  0.71027500  1
  C  106  1  0.06932700  0.21716200  0.68644500  1
  C  107  1  0.04678900  0.23583000  0.67438200  1
  C  124  1  0.00450200  0.62172800  0.67872300  1
  C  125  1  0.97615900  0.63883100  0.67525900  1
  C  126  1  0.97599900  0.67208900  0.67448900  1
  C  127  1  0.00393600  0.69029500  0.67753100  1
  C  128  1  0.03229900  0.67275700  0.68045200  1
  C  129  1  0.03252600  0.63950900  0.68162500  1
  C  130  1  0.00374700  0.72608800  0.67330900  1
  C  131  1  0.00384900  0.72704500  0.64558100  1
  C  132  1  0.03227100  0.72302600  0.63221600  1
  C  133  1  0.03266600  0.72266700  0.60672600  1
  C  134  1  0.00431600  0.72493600  0.59339000  1
  C  135  1  0.97563700  0.72688000  0.60632400  1
  C  136  1  0.97549100  0.72761900  0.63179600  1
  C  137  1  0.97581200  0.74355300  0.68481600  1
  C  138  1  0.03123200  0.74409900  0.68500400  1
  C  139  1  0.04383300  0.77213300  0.67456500  1
  C  140  1  0.06586300  0.79126200  0.68676600  1
  C  141  1  0.07621300  0.78333500  0.71025800  1
  C  142  1  0.06364800  0.75602100  0.72126600  1
  C  143  1  0.04116000  0.73735500  0.70907200  1
  C  144  1  0.96154000  0.73350100  0.70679800  1
  C  145  1  0.93862800  0.75184400  0.71883900  1
  C  146  1  0.92948000  0.78173900  0.70986000  1
  C  147  1  0.94375700  0.79231300  0.68821500  1
  C  148  1  0.96653200  0.77385400  0.67625600  1
  C  165  1  0.62336700  0.00372500  0.82691700  1
  C  166  1  0.64029500  0.97517200  0.82907000  1
  C  167  1  0.67354800  0.97525500  0.83022900  1
  C  168  1  0.69154600  0.00352900  0.82834200  1
  C  169  1  0.67383900  0.03201400  0.82678500  1
  C  170  1  0.64058400  0.03220400  0.82589200  1
  C  171  1  0.72731400  0.00345900  0.83266400  1
  C  172  1  0.72814300  0.00304100  0.86039700  1
  C  173  1  0.72302100  0.03106500  0.87401800  1
  C  174  1  0.72219900  0.03101000  0.89949500  1
  C  175  1  0.72555500  0.00262300  0.91269800  1
  C  176  1  0.72944200  0.97436500  0.89942900  1
  C  177  1  0.72997300  0.97456100  0.87394900  1
  C  178  1  0.74516400  0.97599400  0.82080900  1
  C  179  1  0.74497900  0.03140300  0.82133200  1
  C  180  1  0.77267100  0.04428600  0.83204700  1
  C  181  1  0.79164200  0.06665700  0.82007200  1
  C  182  1  0.78427200  0.07700500  0.79640600  1
  C  183  1  0.75689500  0.06437500  0.78541100  1
  C  184  1  0.73818300  0.04173900  0.79740000  1
  C  185  1  0.73536200  0.96208600  0.79861300  1
  C  186  1  0.75386300  0.93943100  0.78642300  1
  C  187  1  0.78364400  0.93020700  0.79552900  1
  C  188  1  0.79427100  0.94448600  0.81713900  1
  C  189  1  0.77561600  0.96697100  0.82923800  1
  C  206  1  0.38653600  0.00300600  0.82699300  1
  C  207  1  0.36923900  0.03068900  0.83246700  1
  C  208  1  0.33597000  0.03056400  0.83314600  1
  C  209  1  0.31794100  0.00297500  0.82818800  1
  C  210  1  0.33567500  0.97527400  0.82304000  1
  C  211  1  0.36892100  0.97541300  0.82190500  1
  C  212  1  0.28211000  0.00269900  0.83241100  1
  C  213  1  0.28105200  0.00256200  0.86016000  1
  C  214  1  0.28859900  0.97471900  0.87334400  1
  C  215  1  0.28936900  0.97413100  0.89882300  1
  C  216  1  0.28354800  0.00176600  0.91245000  1
  C  217  1  0.27704900  0.02989900  0.89965000  1
  C  218  1  0.27643100  0.03033700  0.87417900  1
  C  219  1  0.26436900  0.03040800  0.82078000  1
  C  220  1  0.26445400  0.97486300  0.82084700  1
  C  221  1  0.23799000  0.96031000  0.83212400  1
  C  222  1  0.21878300  0.93829700  0.81998000  1
  C  223  1  0.22476800  0.92971400  0.79566700  1
  C  224  1  0.25105100  0.94385300  0.78418500  1
  C  225  1  0.26978300  0.96637800  0.79627000  1
  C  226  1  0.27546700  0.04651900  0.79985700  1
  C  227  1  0.25697800  0.06922400  0.78769400  1
  C  228  1  0.22603600  0.07636000  0.79555100  1
  C  229  1  0.21434700  0.06020900  0.81602700  1
  C  230  1  0.23297500  0.03770300  0.82811400  1
  C  247  1  0.00553100  0.38451500  0.32675200  1
  C  248  1  0.97701200  0.36757700  0.32909700  1
  C  249  1  0.97711800  0.33432200  0.33022200  1
  C  250  1  0.00538200  0.31634700  0.32815400  1
  C  251  1  0.03384300  0.33405700  0.32636700  1
  C  252  1  0.03400300  0.36731500  0.32548700  1
  C  253  1  0.00538900  0.28057500  0.33246900  1
  C  254  1  0.00520200  0.27975800  0.36020400  1
  C  255  1  0.03333100  0.28501700  0.37366700  1
  C  256  1  0.03352100  0.28584300  0.39914000  1
  C  257  1  0.00528900  0.28230300  0.41251400  1
  C  258  1  0.97692400  0.27826500  0.39940100  1
  C  259  1  0.97686800  0.27776500  0.37391600  1
  C  260  1  0.97784500  0.26273900  0.32070800  1
  C  261  1  0.03326400  0.26289300  0.32105400  1
  C  262  1  0.04620700  0.23522000  0.33175700  1
  C  263  1  0.06852500  0.21623800  0.31973600  1
  C  264  1  0.07879100  0.22359900  0.29604800  1
  C  265  1  0.06609800  0.25095400  0.28506400  1
  C  266  1  0.04348600  0.26965800  0.29708700  1
  C  267  1  0.96385700  0.27253400  0.29854100  1
  C  268  1  0.94114700  0.25403500  0.28640400  1
  C  269  1  0.93197600  0.22424200  0.29551900  1
  C  270  1  0.94633500  0.21362100  0.31709900  1
  C  271  1  0.96886500  0.23228100  0.32915200  1
  C  288  1  0.00481800  0.62135000  0.32713600  1
  C  289  1  0.03252700  0.63863100  0.33257200  1
  C  290  1  0.03242100  0.67189800  0.33327500  1
  C  291  1  0.00482500  0.68995000  0.32838200  1
  C  292  1  0.97709400  0.67223300  0.32329200  1
  C  293  1  0.97721900  0.63899000  0.32212000  1
  C  294  1  0.00459300  0.72578400  0.33259600  1
  C  295  1  0.00467900  0.72686300  0.36034500  1
  C  296  1  0.97695300  0.71935400  0.37368100  1
  C  297  1  0.97661500  0.71856800  0.39916700  1
  C  298  1  0.00438700  0.72435100  0.41263500  1
  C  299  1  0.03239900  0.73084400  0.39968100  1
  C  300  1  0.03258800  0.73149400  0.37421000  1
  C  301  1  0.03221300  0.74355300  0.32086000  1
  C  302  1  0.97668300  0.74341900  0.32111400  1
  C  303  1  0.96213500  0.76985400  0.33243100  1
  C  304  1  0.94007100  0.78905400  0.32033000  1
  C  305  1  0.93145600  0.78310800  0.29601700  1
  C  306  1  0.94558900  0.75684800  0.28450100  1
  C  307  1  0.96814200  0.73811300  0.29654600  1
  C  308  1  0.04834000  0.73236300  0.29997300  1
  C  309  1  0.07100400  0.75084000  0.28775500  1
  C  310  1  0.07814000  0.78180700  0.29555500  1
  C  311  1  0.06198300  0.79356700  0.31600400  1
  C  312  1  0.03951100  0.77496200  0.32814500  1
  C  329  1  0.28431300  0.00124200  0.93834000  1
  C  330  1  0.30385800  0.02188900  0.95196800  1
  C  331  1  0.30328600  0.02038600  0.97756600  1
  C  332  1  0.28398200  0.99857300  0.99003300  1
  C  333  1  0.26452900  0.97757400  0.97653900  1
  C  334  1  0.26506100  0.97941100  0.95093400  1
  C  336  1  0.28459400  0.99886800  0.01585500  1
  C  337  1  0.31026700  0.98650000  0.02950900  1
  C  338  1  0.30884300  0.98805100  0.05510800  1
  C  339  1  0.28279700  0.00132200  0.06753100  1
  C  340  1  0.25723500  0.01346200  0.05374700  1
  C  341  1  0.25856900  0.01221900  0.02815900  1
  C  357  1  0.72499000  0.00264000  0.93861200  1
  C  358  1  0.70411400  0.98317500  0.95211400  1
  C  359  1  0.70478400  0.98432200  0.97772500  1
  C  360  1  0.72554300  0.00460300  0.99031900  1
  C  361  1  0.74637700  0.02440100  0.97698900  1
  C  362  1  0.74570900  0.02292300  0.95137400  1
  C  364  1  0.72468800  0.00435900  0.01611600  1
  C  365  1  0.70090500  0.02028000  0.02961600  1
  C  366  1  0.70222500  0.01911000  0.05522800  1
  C  367  1  0.72628000  0.00264000  0.06772700  1
  C  368  1  0.74989600  0.98683000  0.05413200  1
  C  369  1  0.74873400  0.98784800  0.02853400  1
  C  385  1  0.00558400  0.28282300  0.43843100  1
  C  386  1  0.98601800  0.30342600  0.45209100  1
  C  387  1  0.98745400  0.30269800  0.47769300  1
  C  388  1  0.00825800  0.28230800  0.49016000  1
  C  389  1  0.02818800  0.26178300  0.47664500  1
  C  390  1  0.02630800  0.26238800  0.45104300  1
  C  392  1  0.00805000  0.28294100  0.51599400  1
  C  393  1  0.02106100  0.30830700  0.52963800  1
  C  394  1  0.01954700  0.30691300  0.55524000  1
  C  395  1  0.00578200  0.28115100  0.56769600  1
  C  396  1  0.99303400  0.25587500  0.55392100  1
  C  397  1  0.99415000  0.25723000  0.52833200  1
  C  413  1  0.00414800  0.72353400  0.43852200  1
  C  414  1  0.02486100  0.70385600  0.45198300  1
  C  415  1  0.02366000  0.70437300  0.47759200  1
  C  416  1  0.00219100  0.72388300  0.49020000  1
  C  417  1  0.98113900  0.74348500  0.47689800  1
  C  418  1  0.98258900  0.74291100  0.45128000  1
  C  420  1  0.00255500  0.72304000  0.51598800  1
  C  421  1  0.98733600  0.69882700  0.52951100  1
  C  422  1  0.98855600  0.70017000  0.55512000  1
  C  423  1  0.00447500  0.72462900  0.56757400  1
  C  424  1  0.01961100  0.74865800  0.55396100  1
  C  425  1  0.01847600  0.74751300  0.52836500  1
  C  441  1  0.20544300  0.09678900  0.22336100  1
  C  442  1  0.21416200  0.12862100  0.22770300  1
  C  443  1  0.19306100  0.14876500  0.24024800  1
  C  444  1  0.16361800  0.13793200  0.24902500  1
  C  445  1  0.15487300  0.10589100  0.24494000  1
  C  446  1  0.17587200  0.08606500  0.23198900  1
  C  448  1  0.14344900  0.15994800  0.26113900  1
  C  449  1  0.15033700  0.17243100  0.28448400  1
  C  450  1  0.12877400  0.19397000  0.29508300  1
  C  451  1  0.10036100  0.20318800  0.28355400  1
  C  452  1  0.09360200  0.19043000  0.26033500  1
  C  453  1  0.11535600  0.16943200  0.24938100  1
  C  469  1  0.80516100  0.91041700  0.22334300  1
  C  470  1  0.79606700  0.87889500  0.22830300  1
  C  471  1  0.81728000  0.85878100  0.24074600  1
  C  472  1  0.84704000  0.86948700  0.24901900  1
  C  473  1  0.85605300  0.90133700  0.24431000  1
  C  474  1  0.83505800  0.92105400  0.23124300  1
  C  476  1  0.86721500  0.84747400  0.26119500  1
  C  477  1  0.85987900  0.83427200  0.28423100  1
  C  478  1  0.88124900  0.81244800  0.29471900  1
  C  479  1  0.91007400  0.80379200  0.28352300  1
  C  480  1  0.91734000  0.81738100  0.26066100  1
  C  481  1  0.89564400  0.83843300  0.24969800  1
  C  497  1  0.91099000  0.20371100  0.72368300  1
  C  498  1  0.87917300  0.21243500  0.72808000  1
  C  499  1  0.85905700  0.19132800  0.74064300  1
  C  500  1  0.86990700  0.16187400  0.74939000  1
  C  501  1  0.90193700  0.15312700  0.74525100  1
  C  502  1  0.92173200  0.17413100  0.73227700  1
  C  504  1  0.84791100  0.14168900  0.76151300  1
  C  505  1  0.83543900  0.14855900  0.78486400  1
  C  506  1  0.81391500  0.12698200  0.79546600  1
  C  507  1  0.80469800  0.09857500  0.78392800  1
  C  508  1  0.81744300  0.09183300  0.76070200  1
  C  509  1  0.83842800  0.11359900  0.74974900  1
  C  525  1  0.09742900  0.80345100  0.72299300  1
  C  526  1  0.12894900  0.79434600  0.72795100  1
  C  527  1  0.14908100  0.81556300  0.74037300  1
  C  528  1  0.13839400  0.84533500  0.74863100  1
  C  529  1  0.10654600  0.85436000  0.74392500  1
  C  530  1  0.08681100  0.83336500  0.73087700  1
  C  532  1  0.16041500  0.86549900  0.76080700  1
  C  533  1  0.17359700  0.85815500  0.78384800  1
  C  534  1  0.19542700  0.87951600  0.79434200  1
  C  535  1  0.20409800  0.90833900  0.78315100  1
  C  536  1  0.19054200  0.91560400  0.76028000  1
  C  537  1  0.16948700  0.89391800  0.74930900  1
  C  553  1  0.80336600  0.90852000  0.78269300  1
  C  554  1  0.79362800  0.87723200  0.77736100  1
  C  555  1  0.81451700  0.85673600  0.76494300  1
  C  556  1  0.84484900  0.86667000  0.75745500  1
  C  557  1  0.85472100  0.89809700  0.76259900  1
  C  558  1  0.83380900  0.91831500  0.77526000  1
  C  560  1  0.86464600  0.84448500  0.74525300  1
  C  561  1  0.85983100  0.83557500  0.72068600  1
  C  562  1  0.88131000  0.81414600  0.70987100  1
  C  563  1  0.90753800  0.80152700  0.72249200  1
  C  564  1  0.91214000  0.81059000  0.74699600  1
  C  565  1  0.89053600  0.83164600  0.75805300  1
  C  581  1  0.20629300  0.09785600  0.78255400  1
  C  582  1  0.21460200  0.12997700  0.77907000  1
  C  583  1  0.19357000  0.15023000  0.76655800  1
  C  584  1  0.16457900  0.13924800  0.75704400  1
  C  585  1  0.15625000  0.10693600  0.76025100  1
  C  586  1  0.17719500  0.08697500  0.77312200  1
  C  588  1  0.14436500  0.16135100  0.74509500  1
  C  589  1  0.15136800  0.17433000  0.72193600  1
  C  590  1  0.12960000  0.19570000  0.71138500  1
  C  591  1  0.10089100  0.20426700  0.72278500  1
  C  592  1  0.09406500  0.19105600  0.74584500  1
  C  593  1  0.11600200  0.17021000  0.75675100  1
  C  609  1  0.09962200  0.80151500  0.28252200  1
  C  610  1  0.13176100  0.79323400  0.27909900  1
  C  611  1  0.15201200  0.81424800  0.26656500  1
  C  612  1  0.14101100  0.84319100  0.25698300  1
  C  613  1  0.10868000  0.85148900  0.26012600  1
  C  614  1  0.08871900  0.83056000  0.27301000  1
  C  616  1  0.16311300  0.86339000  0.24502100  1
  C  617  1  0.17616600  0.85631300  0.22190200  1
  C  618  1  0.19753200  0.87807300  0.21133600  1
  C  619  1  0.20601800  0.90684100  0.22268200  1
  C  620  1  0.19273700  0.91373900  0.24570600  1
  C  621  1  0.17189000  0.89181600  0.25662400  1
  C  637  1  0.91027000  0.20450000  0.28271300  1
  C  638  1  0.87898200  0.21423500  0.27737400  1
  C  639  1  0.85848300  0.19333500  0.26496600  1
  C  640  1  0.86841700  0.16300000  0.25748400  1
  C  641  1  0.89984500  0.15313500  0.26263200  1
  C  642  1  0.92006300  0.17405300  0.27528900  1
  C  644  1  0.84623000  0.14318800  0.24529300  1
  C  645  1  0.83727300  0.14801300  0.22073400  1
  C  646  1  0.81584400  0.12652300  0.20992900  1
  C  647  1  0.80327400  0.10027200  0.22255000  1
  C  648  1  0.81237700  0.09566300  0.24704400  1
  C  649  1  0.83342700  0.11728400  0.25809500  1
  C  665  1  0.42020700  0.00442000  0.17968000  1
  C  666  1  0.43787900  0.99371100  0.19990900  1
  C  667  1  0.47131400  0.99452400  0.19907400  1
  C  668  1  0.48785800  0.00595900  0.17863400  1
  C  669  1  0.47027700  0.01681300  0.15827900  1
  C  670  1  0.43682900  0.01579500  0.15923200  1
  C  672  1  0.52167200  0.00591700  0.17928400  1
  C  673  1  0.53950100  0.02732000  0.19371200  1
  C  674  1  0.57292800  0.02533700  0.19330800  1
  C  675  1  0.58947200  0.00317200  0.17886600  1
  C  676  1  0.57140500  0.98214300  0.16433600  1
  C  677  1  0.53797800  0.98360500  0.16494400  1
  C  693  1  0.00337500  0.41847600  0.67971900  1
  C  694  1  0.01413300  0.43616700  0.69992100  1
  C  695  1  0.01332600  0.46960200  0.69906400  1
  C  696  1  0.00186000  0.48612200  0.67862500  1
  C  697  1  0.99096500  0.46852300  0.65829200  1
  C  698  1  0.99196600  0.43507200  0.65927000  1
  C  700  1  0.00190500  0.51993700  0.67925100  1
  C  701  1  0.98049900  0.53778200  0.69366700  1
  C  702  1  0.98247800  0.57120900  0.69323600  1
  C  703  1  0.00463900  0.58773900  0.67877900  1
  C  704  1  0.02567200  0.56965300  0.66426600  1
  C  705  1  0.02422000  0.53622500  0.66490300  1
  C  721  1  0.58972000  0.00392800  0.82679400  1
  C  722  1  0.57224800  0.99727200  0.80553600  1
  C  723  1  0.53881800  0.99802100  0.80639600  1
  C  724  1  0.52222500  0.00558800  0.82786900  1
  C  725  1  0.53979600  0.01234200  0.84927400  1
  C  726  1  0.57325200  0.01132400  0.84830500  1
  C  728  1  0.48838200  0.00573100  0.82716800  1
  C  729  1  0.47060100  0.02899300  0.81449000  1
  C  730  1  0.43716900  0.02694200  0.81458400  1
  C  731  1  0.42053500  0.00295400  0.82712500  1
  C  732  1  0.43853800  0.98009300  0.83998300  1
  C  733  1  0.47197000  0.98158300  0.83956300  1
  C  749  1  0.00572700  0.41816000  0.32667100  1
  C  750  1  0.99919000  0.43567400  0.30541100  1
  C  751  1  0.99993300  0.46910100  0.30631600  1
  C  752  1  0.00739800  0.48565200  0.32783100  1
  C  753  1  0.01403600  0.46803400  0.34923600  1
  C  754  1  0.01300100  0.43458100  0.34822800  1
  C  756  1  0.00754100  0.51949800  0.32717400  1
  C  757  1  0.03080300  0.53730900  0.31451900  1
  C  758  1  0.02874300  0.57074100  0.31465100  1
  C  759  1  0.00475600  0.58734900  0.32721400  1
  C  760  1  0.98190400  0.56931500  0.34005600  1
  C  761  1  0.98338700  0.53588300  0.33958500  1
  C  777  1  0.76419800  0.45273600  0.17942400  1
  C  778  1  0.74720100  0.42424700  0.18213600  1
  C  779  1  0.71396300  0.42376500  0.18085500  1
  C  780  1  0.69585600  0.45173500  0.17764900  1
  C  781  1  0.71346000  0.48001400  0.17430100  1
  C  782  1  0.74670100  0.48062700  0.17529800  1
  C  783  1  0.66006500  0.45117600  0.17343400  1
  C  784  1  0.65905900  0.45111000  0.14570300  1
  C  785  1  0.65636700  0.47926200  0.13183600  1
  C  786  1  0.65670400  0.47895200  0.10635100  1
  C  787  1  0.66053700  0.45042700  0.09342200  1
  C  788  1  0.66517200  0.42246400  0.10691400  1
  C  789  1  0.66490100  0.42296700  0.13239600  1
  C  790  1  0.64268500  0.42319100  0.18499900  1
  C  791  1  0.64201000  0.47863600  0.18511300  1
  C  792  1  0.61114400  0.48676800  0.17704600  1
  C  793  1  0.59225600  0.50901400  0.18920500  1
  C  794  1  0.60318000  0.52407900  0.21040700  1
  C  795  1  0.63354400  0.51601800  0.21900800  1
  C  796  1  0.65222500  0.49349400  0.20683500  1
  C  797  1  0.64919300  0.41368200  0.20918300  1
  C  798  1  0.63082900  0.39085500  0.22127700  1
  C  799  1  0.60399600  0.37727700  0.21015700  1
  C  800  1  0.59682900  0.38689000  0.18627600  1
  C  801  1  0.61548900  0.40941300  0.17419100  1
  C  818  1  0.00127729  0.45195700  0.17884100  1
  C  819  1  0.01839430  0.48028300  0.17535200  1
  C  820  1  0.05165230  0.48042400  0.17460200  1
  C  821  1  0.06984930  0.45249200  0.17770500  1
  C  822  1  0.05228930  0.42414500  0.18066200  1
  C  823  1  0.01903930  0.42393300  0.18179800  1
  C  824  1  0.10564000  0.45262000  0.17348700  1
  C  825  1  0.10659600  0.45235900  0.14576100  1
  C  826  1  0.10248500  0.42388100  0.13248600  1
  C  827  1  0.10206500  0.42334700  0.10699800  1
  C  828  1  0.10444000  0.45160600  0.09355600  1
  C  829  1  0.10649900  0.48034400  0.10640800  1
  C  830  1  0.10723800  0.48063700  0.13187900  1
  C  831  1  0.12311400  0.48059600  0.18492500  1
  C  832  1  0.12364500  0.42517700  0.18524000  1
  C  833  1  0.15170000  0.41256700  0.17483600  1
  C  834  1  0.17081800  0.39056700  0.18707400  1
  C  835  1  0.16287400  0.38026900  0.21057600  1
  C  836  1  0.13555600  0.39286400  0.22155600  1
  C  837  1  0.11687700  0.41530000  0.20931500  1
  C  838  1  0.11308700  0.49487900  0.20691300  1
  C  839  1  0.13142100  0.51782200  0.21893000  1
  C  840  1  0.16130200  0.52698000  0.20992900  1
  C  841  1  0.17185700  0.51269300  0.18828200  1
  C  842  1  0.15339800  0.48989500  0.17634800  1
  C  859  1  0.38151200  0.83331300  0.67949400  1
  C  860  1  0.41001100  0.81630200  0.68208000  1
  C  861  1  0.41044700  0.78305900  0.68084700  1
  C  862  1  0.38243500  0.76495700  0.67783400  1
  C  863  1  0.35414700  0.78258900  0.67460500  1
  C  864  1  0.35356900  0.81583200  0.67555800  1
  C  865  1  0.38295600  0.72916800  0.67361800  1
  C  866  1  0.38290700  0.72814100  0.64589000  1
  C  867  1  0.35465700  0.72575800  0.63210700  1
  C  868  1  0.35482000  0.72615000  0.60662300  1
  C  869  1  0.38330500  0.72970100  0.59359500  1
  C  870  1  0.41138500  0.73404900  0.60700900  1
  C  871  1  0.41102000  0.73377000  0.63249100  1
  C  872  1  0.41096800  0.71179300  0.68514000  1
  C  873  1  0.35551400  0.71113400  0.68533000  1
  C  874  1  0.34728300  0.68030400  0.67724000  1
  C  875  1  0.32506000  0.66141700  0.68942400  1
  C  876  1  0.31013900  0.67229200  0.71070000  1
  C  877  1  0.31833000  0.70259500  0.71935200  1
  C  878  1  0.34082000  0.72127400  0.70713900  1
  C  879  1  0.42059600  0.71834300  0.70929100  1
  C  880  1  0.44343700  0.69997700  0.72136900  1
  C  881  1  0.45690800  0.67307400  0.71027500  1
  C  882  1  0.44714500  0.66582100  0.68644500  1
  C  883  1  0.42460700  0.68448900  0.67438200  1
  C  900  1  0.38232000  0.07038720  0.67872300  1
  C  901  1  0.35397700  0.08749020  0.67525900  1
  C  902  1  0.35381700  0.12074800  0.67448900  1
  C  903  1  0.38175400  0.13895400  0.67753100  1
  C  904  1  0.41011700  0.12141600  0.68045200  1
  C  905  1  0.41034400  0.08816820  0.68162500  1
  C  906  1  0.38156500  0.17474700  0.67330900  1
  C  907  1  0.38166700  0.17570400  0.64558100  1
  C  908  1  0.41008900  0.17168500  0.63221600  1
  C  909  1  0.41048400  0.17132600  0.60672600  1
  C  910  1  0.38213400  0.17359500  0.59339000  1
  C  911  1  0.35345500  0.17553900  0.60632400  1
  C  912  1  0.35330900  0.17627800  0.63179600  1
  C  913  1  0.35363000  0.19221200  0.68481600  1
  C  914  1  0.40905000  0.19275800  0.68500400  1
  C  915  1  0.42165100  0.22079200  0.67456500  1
  C  916  1  0.44368100  0.23992100  0.68676600  1
  C  917  1  0.45403100  0.23199400  0.71025800  1
  C  918  1  0.44146600  0.20468000  0.72126600  1
  C  919  1  0.41897800  0.18601400  0.70907200  1
  C  920  1  0.33935800  0.18216000  0.70679800  1
  C  921  1  0.31644600  0.20050300  0.71883900  1
  C  922  1  0.30729800  0.23039800  0.70986000  1
  C  923  1  0.32157500  0.24097200  0.68821500  1
  C  924  1  0.34435000  0.22251300  0.67625600  1
  C  941  1  0.00118529  0.45238400  0.82691700  1
  C  942  1  0.01811330  0.42383100  0.82907000  1
  C  943  1  0.05136630  0.42391400  0.83022900  1
  C  944  1  0.06936430  0.45218800  0.82834200  1
  C  945  1  0.05165730  0.48067300  0.82678500  1
  C  946  1  0.01840230  0.48086300  0.82589200  1
  C  947  1  0.10513200  0.45211800  0.83266400  1
  C  948  1  0.10596100  0.45170000  0.86039700  1
  C  949  1  0.10083900  0.47972400  0.87401800  1
  C  950  1  0.10001700  0.47966900  0.89949500  1
  C  951  1  0.10337300  0.45128200  0.91269800  1
  C  952  1  0.10726000  0.42302400  0.89942900  1
  C  953  1  0.10779100  0.42322000  0.87394900  1
  C  954  1  0.12298200  0.42465300  0.82080900  1
  C  955  1  0.12279700  0.48006200  0.82133200  1
  C  956  1  0.15048900  0.49294500  0.83204700  1
  C  957  1  0.16946000  0.51531600  0.82007200  1
  C  958  1  0.16209000  0.52566400  0.79640600  1
  C  959  1  0.13471300  0.51303400  0.78541100  1
  C  960  1  0.11600100  0.49039800  0.79740000  1
  C  961  1  0.11318000  0.41074500  0.79861300  1
  C  962  1  0.13168100  0.38809000  0.78642300  1
  C  963  1  0.16146200  0.37886600  0.79552900  1
  C  964  1  0.17208900  0.39314500  0.81713900  1
  C  965  1  0.15343400  0.41563000  0.82923800  1
  C  982  1  0.76435400  0.45166500  0.82699300  1
  C  983  1  0.74705700  0.47934800  0.83246700  1
  C  984  1  0.71378800  0.47922300  0.83314600  1
  C  985  1  0.69575900  0.45163400  0.82818800  1
  C  986  1  0.71349300  0.42393300  0.82304000  1
  C  987  1  0.74673900  0.42407200  0.82190500  1
  C  988  1  0.65992800  0.45135800  0.83241100  1
  C  989  1  0.65887000  0.45122100  0.86016000  1
  C  990  1  0.66641700  0.42337800  0.87334400  1
  C  991  1  0.66718700  0.42279000  0.89882300  1
  C  992  1  0.66136600  0.45042500  0.91245000  1
  C  993  1  0.65486700  0.47855800  0.89965000  1
  C  994  1  0.65424900  0.47899600  0.87417900  1
  C  995  1  0.64218700  0.47906700  0.82078000  1
  C  996  1  0.64227200  0.42352200  0.82084700  1
  C  997  1  0.61580800  0.40896900  0.83212400  1
  C  998  1  0.59660100  0.38695600  0.81998000  1
  C  999  1  0.60258600  0.37837300  0.79566700  1
  C  1000  1  0.62886900  0.39251200  0.78418500  1
  C  1001  1  0.64760100  0.41503700  0.79627000  1
  C  1002  1  0.65328500  0.49517800  0.79985700  1
  C  1003  1  0.63479600  0.51788300  0.78769400  1
  C  1004  1  0.60385400  0.52501900  0.79555100  1
  C  1005  1  0.59216500  0.50886800  0.81602700  1
  C  1006  1  0.61079300  0.48636200  0.82811400  1
  C  1023  1  0.38334900  0.83317400  0.32675200  1
  C  1024  1  0.35483000  0.81623600  0.32909700  1
  C  1025  1  0.35493600  0.78298100  0.33022200  1
  C  1026  1  0.38320000  0.76500600  0.32815400  1
  C  1027  1  0.41166100  0.78271600  0.32636700  1
  C  1028  1  0.41182100  0.81597400  0.32548700  1
  C  1029  1  0.38320700  0.72923400  0.33246900  1
  C  1030  1  0.38302000  0.72841700  0.36020400  1
  C  1031  1  0.41114900  0.73367600  0.37366700  1
  C  1032  1  0.41133900  0.73450200  0.39914000  1
  C  1033  1  0.38310700  0.73096200  0.41251400  1
  C  1034  1  0.35474200  0.72692400  0.39940100  1
  C  1035  1  0.35468600  0.72642400  0.37391600  1
  C  1036  1  0.35566300  0.71139800  0.32070800  1
  C  1037  1  0.41108200  0.71155200  0.32105400  1
  C  1038  1  0.42402500  0.68387900  0.33175700  1
  C  1039  1  0.44634300  0.66489700  0.31973600  1
  C  1040  1  0.45660900  0.67225800  0.29604800  1
  C  1041  1  0.44391600  0.69961300  0.28506400  1
  C  1042  1  0.42130400  0.71831700  0.29708700  1
  C  1043  1  0.34167500  0.72119300  0.29854100  1
  C  1044  1  0.31896500  0.70269400  0.28640400  1
  C  1045  1  0.30979400  0.67290100  0.29551900  1
  C  1046  1  0.32415300  0.66228000  0.31709900  1
  C  1047  1  0.34668300  0.68094000  0.32915200  1
  C  1064  1  0.38263600  0.07000920  0.32713600  1
  C  1065  1  0.41034500  0.08729020  0.33257200  1
  C  1066  1  0.41023900  0.12055700  0.33327500  1
  C  1067  1  0.38264300  0.13860900  0.32838200  1
  C  1068  1  0.35491200  0.12089200  0.32329200  1
  C  1069  1  0.35503700  0.08764920  0.32212000  1
  C  1070  1  0.38241100  0.17444300  0.33259600  1
  C  1071  1  0.38249700  0.17552200  0.36034500  1
  C  1072  1  0.35477100  0.16801300  0.37368100  1
  C  1073  1  0.35443300  0.16722700  0.39916700  1
  C  1074  1  0.38220500  0.17301000  0.41263500  1
  C  1075  1  0.41021700  0.17950300  0.39968100  1
  C  1076  1  0.41040600  0.18015300  0.37421000  1
  C  1077  1  0.41003100  0.19221200  0.32086000  1
  C  1078  1  0.35450100  0.19207800  0.32111400  1
  C  1079  1  0.33995300  0.21851300  0.33243100  1
  C  1080  1  0.31788900  0.23771300  0.32033000  1
  C  1081  1  0.30927400  0.23176700  0.29601700  1
  C  1082  1  0.32340700  0.20550700  0.28450100  1
  C  1083  1  0.34596000  0.18677200  0.29654600  1
  C  1084  1  0.42615800  0.18102200  0.29997300  1
  C  1085  1  0.44882200  0.19949900  0.28775500  1
  C  1086  1  0.45595800  0.23046600  0.29555500  1
  C  1087  1  0.43980100  0.24222600  0.31600400  1
  C  1088  1  0.41732900  0.22362100  0.32814500  1
  C  1105  1  0.66213100  0.44990100  0.93834000  1
  C  1106  1  0.68167600  0.47054800  0.95196800  1
  C  1107  1  0.68110400  0.46904500  0.97756600  1
  C  1108  1  0.66180000  0.44723200  0.99003300  1
  C  1109  1  0.64234700  0.42623300  0.97653900  1
  C  1110  1  0.64287900  0.42807000  0.95093400  1
  C  1112  1  0.66241200  0.44752700  0.01585500  1
  C  1113  1  0.68808500  0.43515900  0.02950900  1
  C  1114  1  0.68666100  0.43671000  0.05510800  1
  C  1115  1  0.66061500  0.44998100  0.06753100  1
  C  1116  1  0.63505300  0.46212100  0.05374700  1
  C  1117  1  0.63638700  0.46087800  0.02815900  1
  C  1133  1  0.10280800  0.45129900  0.93861200  1
  C  1134  1  0.08193230  0.43183400  0.95211400  1
  C  1135  1  0.08260230  0.43298100  0.97772500  1
  C  1136  1  0.10336100  0.45326200  0.99031900  1
  C  1137  1  0.12419500  0.47306000  0.97698900  1
  C  1138  1  0.12352700  0.47158200  0.95137400  1
  C  1140  1  0.10250600  0.45301800  0.01611600  1
  C  1141  1  0.07872330  0.46893900  0.02961600  1
  C  1142  1  0.08004330  0.46776900  0.05522800  1
  C  1143  1  0.10409800  0.45129900  0.06772700  1
  C  1144  1  0.12771400  0.43548900  0.05413200  1
  C  1145  1  0.12655200  0.43650700  0.02853400  1
  C  1161  1  0.38340200  0.73148200  0.43843100  1
  C  1162  1  0.36383600  0.75208500  0.45209100  1
  C  1163  1  0.36527200  0.75135700  0.47769300  1
  C  1164  1  0.38607600  0.73096700  0.49016000  1
  C  1165  1  0.40600600  0.71044200  0.47664500  1
  C  1166  1  0.40412600  0.71104700  0.45104300  1
  C  1168  1  0.38586800  0.73160000  0.51599400  1
  C  1169  1  0.39887900  0.75696600  0.52963800  1
  C  1170  1  0.39736500  0.75557200  0.55524000  1
  C  1171  1  0.38360000  0.72981000  0.56769600  1
  C  1172  1  0.37085200  0.70453400  0.55392100  1
  C  1173  1  0.37196800  0.70588900  0.52833200  1
  C  1189  1  0.38196600  0.17219300  0.43852200  1
  C  1190  1  0.40267900  0.15251500  0.45198300  1
  C  1191  1  0.40147800  0.15303200  0.47759200  1
  C  1192  1  0.38000900  0.17254200  0.49020000  1
  C  1193  1  0.35895700  0.19214400  0.47689800  1
  C  1194  1  0.36040700  0.19157000  0.45128000  1
  C  1196  1  0.38037300  0.17169900  0.51598800  1
  C  1197  1  0.36515400  0.14748600  0.52951100  1
  C  1198  1  0.36637400  0.14882900  0.55512000  1
  C  1199  1  0.38229300  0.17328800  0.56757400  1
  C  1200  1  0.39742900  0.19731700  0.55396100  1
  C  1201  1  0.39629400  0.19617200  0.52836500  1
  C  1217  1  0.58326100  0.54544800  0.22336100  1
  C  1218  1  0.59198000  0.57728000  0.22770300  1
  C  1219  1  0.57087900  0.59742400  0.24024800  1
  C  1220  1  0.54143600  0.58659100  0.24902500  1
  C  1221  1  0.53269100  0.55455000  0.24494000  1
  C  1222  1  0.55369000  0.53472400  0.23198900  1
  C  1224  1  0.52126700  0.60860700  0.26113900  1
  C  1225  1  0.52815500  0.62109000  0.28448400  1
  C  1226  1  0.50659200  0.64262900  0.29508300  1
  C  1227  1  0.47817900  0.65184700  0.28355400  1
  C  1228  1  0.47142000  0.63908900  0.26033500  1
  C  1229  1  0.49317400  0.61809100  0.24938100  1
  C  1245  1  0.18297900  0.35907600  0.22334300  1
  C  1246  1  0.17388500  0.32755400  0.22830300  1
  C  1247  1  0.19509800  0.30744000  0.24074600  1
  C  1248  1  0.22485800  0.31814600  0.24901900  1
  C  1249  1  0.23387100  0.34999600  0.24431000  1
  C  1250  1  0.21287600  0.36971300  0.23124300  1
  C  1252  1  0.24503300  0.29613300  0.26119500  1
  C  1253  1  0.23769700  0.28293100  0.28423100  1
  C  1254  1  0.25906700  0.26110700  0.29471900  1
  C  1255  1  0.28789200  0.25245100  0.28352300  1
  C  1256  1  0.29515800  0.26604000  0.26066100  1
  C  1257  1  0.27346200  0.28709200  0.24969800  1
  C  1273  1  0.28880800  0.65237000  0.72368300  1
  C  1274  1  0.25699100  0.66109400  0.72808000  1
  C  1275  1  0.23687500  0.63998700  0.74064300  1
  C  1276  1  0.24772500  0.61053300  0.74939000  1
  C  1277  1  0.27975500  0.60178600  0.74525100  1
  C  1278  1  0.29955000  0.62279000  0.73227700  1
  C  1280  1  0.22572900  0.59034800  0.76151300  1
  C  1281  1  0.21325700  0.59721800  0.78486400  1
  C  1282  1  0.19173300  0.57564100  0.79546600  1
  C  1283  1  0.18251600  0.54723400  0.78392800  1
  C  1284  1  0.19526100  0.54049200  0.76070200  1
  C  1285  1  0.21624600  0.56225800  0.74974900  1
  C  1301  1  0.47524700  0.25211000  0.72299300  1
  C  1302  1  0.50676700  0.24300500  0.72795100  1
  C  1303  1  0.52689900  0.26422200  0.74037300  1
  C  1304  1  0.51621200  0.29399400  0.74863100  1
  C  1305  1  0.48436400  0.30301900  0.74392500  1
  C  1306  1  0.46462900  0.28202400  0.73087700  1
  C  1308  1  0.53823300  0.31415800  0.76080700  1
  C  1309  1  0.55141500  0.30681400  0.78384800  1
  C  1310  1  0.57324500  0.32817500  0.79434200  1
  C  1311  1  0.58191600  0.35699800  0.78315100  1
  C  1312  1  0.56836000  0.36426300  0.76028000  1
  C  1313  1  0.54730500  0.34257700  0.74930900  1
  C  1329  1  0.18118400  0.35717900  0.78269300  1
  C  1330  1  0.17144600  0.32589100  0.77736100  1
  C  1331  1  0.19233500  0.30539500  0.76494300  1
  C  1332  1  0.22266700  0.31532900  0.75745500  1
  C  1333  1  0.23253900  0.34675600  0.76259900  1
  C  1334  1  0.21162700  0.36697400  0.77526000  1
  C  1336  1  0.24246400  0.29314400  0.74525300  1
  C  1337  1  0.23764900  0.28423400  0.72068600  1
  C  1338  1  0.25912800  0.26280500  0.70987100  1
  C  1339  1  0.28535600  0.25018600  0.72249200  1
  C  1340  1  0.28995800  0.25924900  0.74699600  1
  C  1341  1  0.26835400  0.28030500  0.75805300  1
  C  1357  1  0.58411100  0.54651500  0.78255400  1
  C  1358  1  0.59242000  0.57863600  0.77907000  1
  C  1359  1  0.57138800  0.59888900  0.76655800  1
  C  1360  1  0.54239700  0.58790700  0.75704400  1
  C  1361  1  0.53406800  0.55559500  0.76025100  1
  C  1362  1  0.55501300  0.53563400  0.77312200  1
  C  1364  1  0.52218300  0.61001000  0.74509500  1
  C  1365  1  0.52918600  0.62298900  0.72193600  1
  C  1366  1  0.50741800  0.64435900  0.71138500  1
  C  1367  1  0.47870900  0.65292600  0.72278500  1
  C  1368  1  0.47188300  0.63971500  0.74584500  1
  C  1369  1  0.49382000  0.61886900  0.75675100  1
  C  1385  1  0.47744000  0.25017400  0.28252200  1
  C  1386  1  0.50957900  0.24189300  0.27909900  1
  C  1387  1  0.52983000  0.26290700  0.26656500  1
  C  1388  1  0.51882900  0.29185000  0.25698300  1
  C  1389  1  0.48649800  0.30014800  0.26012600  1
  C  1390  1  0.46653700  0.27921900  0.27301000  1
  C  1392  1  0.54093100  0.31204900  0.24502100  1
  C  1393  1  0.55398400  0.30497200  0.22190200  1
  C  1394  1  0.57535000  0.32673200  0.21133600  1
  C  1395  1  0.58383600  0.35550000  0.22268200  1
  C  1396  1  0.57055500  0.36239800  0.24570600  1
  C  1397  1  0.54970800  0.34047500  0.25662400  1
  C  1413  1  0.28808800  0.65315900  0.28271300  1
  C  1414  1  0.25680000  0.66289400  0.27737400  1
  C  1415  1  0.23630100  0.64199400  0.26496600  1
  C  1416  1  0.24623500  0.61165900  0.25748400  1
  C  1417  1  0.27766300  0.60179400  0.26263200  1
  C  1418  1  0.29788100  0.62271200  0.27528900  1
  C  1420  1  0.22404800  0.59184700  0.24529300  1
  C  1421  1  0.21509100  0.59667200  0.22073400  1
  C  1422  1  0.19366200  0.57518200  0.20992900  1
  C  1423  1  0.18109200  0.54893100  0.22255000  1
  C  1424  1  0.19019500  0.54432200  0.24704400  1
  C  1425  1  0.21124500  0.56594300  0.25809500  1
  C  1441  1  0.79802500  0.45307900  0.17968000  1
  C  1442  1  0.81569700  0.44237000  0.19990900  1
  C  1443  1  0.84913200  0.44318300  0.19907400  1
  C  1444  1  0.86567600  0.45461800  0.17863400  1
  C  1445  1  0.84809500  0.46547200  0.15827900  1
  C  1446  1  0.81464700  0.46445400  0.15923200  1
  C  1448  1  0.89949000  0.45457600  0.17928400  1
  C  1449  1  0.91731900  0.47597900  0.19371200  1
  C  1450  1  0.95074600  0.47399600  0.19330800  1
  C  1451  1  0.96729000  0.45183100  0.17886600  1
  C  1452  1  0.94922300  0.43080200  0.16433600  1
  C  1453  1  0.91579600  0.43226400  0.16494400  1
  C  1469  1  0.38119300  0.86713500  0.67971900  1
  C  1470  1  0.39195100  0.88482600  0.69992100  1
  C  1471  1  0.39114400  0.91826100  0.69906400  1
  C  1472  1  0.37967800  0.93478100  0.67862500  1
  C  1473  1  0.36878300  0.91718200  0.65829200  1
  C  1474  1  0.36978400  0.88373100  0.65927000  1
  C  1476  1  0.37972300  0.96859600  0.67925100  1
  C  1477  1  0.35831700  0.98644100  0.69366700  1
  C  1478  1  0.36029600  0.01986820  0.69323600  1
  C  1479  1  0.38245700  0.03639820  0.67877900  1
  C  1480  1  0.40349000  0.01831220  0.66426600  1
  C  1481  1  0.40203800  0.98488400  0.66490300  1
  C  1497  1  0.96753800  0.45258700  0.82679400  1
  C  1498  1  0.95006600  0.44593100  0.80553600  1
  C  1499  1  0.91663600  0.44668000  0.80639600  1
  C  1500  1  0.90004300  0.45424700  0.82786900  1
  C  1501  1  0.91761400  0.46100100  0.84927400  1
  C  1502  1  0.95107000  0.45998300  0.84830500  1
  C  1504  1  0.86620000  0.45439000  0.82716800  1
  C  1505  1  0.84841900  0.47765200  0.81449000  1
  C  1506  1  0.81498700  0.47560100  0.81458400  1
  C  1507  1  0.79835300  0.45161300  0.82712500  1
  C  1508  1  0.81635600  0.42875200  0.83998300  1
  C  1509  1  0.84978800  0.43024200  0.83956300  1
  C  1525  1  0.38354500  0.86681900  0.32667100  1
  C  1526  1  0.37700800  0.88433300  0.30541100  1
  C  1527  1  0.37775100  0.91776000  0.30631600  1
  C  1528  1  0.38521600  0.93431100  0.32783100  1
  C  1529  1  0.39185400  0.91669300  0.34923600  1
  C  1530  1  0.39081900  0.88324000  0.34822800  1
  C  1532  1  0.38535900  0.96815700  0.32717400  1
  C  1533  1  0.40862100  0.98596800  0.31451900  1
  C  1534  1  0.40656100  0.01940020  0.31465100  1
  C  1535  1  0.38257400  0.03600820  0.32721400  1
  C  1536  1  0.35972200  0.01797420  0.34005600  1
  C  1537  1  0.36120500  0.98454200  0.33958500  1
  N  345  1  0.33591600  0.97281100  0.01898300  1
  N  348  1  0.24574700  0.95551100  0.98722800  1
  N  351  1  0.32448000  0.04300800  0.93988500  1
  N  352  1  0.23022300  0.02564200  0.06566800  1
  N  373  1  0.67720400  0.03693400  0.01892300  1
  N  376  1  0.76665000  0.04495300  0.98784700  1
  N  379  1  0.68207500  0.96366500  0.93991600  1
  N  380  1  0.77488600  0.97125200  0.06630200  1
  N  401  1  0.03537900  0.33361100  0.51911000  1
  N  404  1  0.04934900  0.24194800  0.48729200  1
  N  407  1  0.96611600  0.32526800  0.44005900  1
  N  408  1  0.98040000  0.22907000  0.56584300  1
  N  429  1  0.97135400  0.67465600  0.51883300  1
  N  432  1  0.95950000  0.76254100  0.48780400  1
  N  435  1  0.04573900  0.68316600  0.43972600  1
  N  436  1  0.03465600  0.77397700  0.56612600  1
  N  457  1  0.17641300  0.16391600  0.29735300  1
  N  460  1  0.12737600  0.09329400  0.25332500  1
  N  463  1  0.24336700  0.14003900  0.21879100  1
  N  464  1  0.06456900  0.19754000  0.24879800  1
  N  485  1  0.83356800  0.84238600  0.29697700  1
  N  488  1  0.88375900  0.91393500  0.25227500  1
  N  491  1  0.76624800  0.86795200  0.22028800  1
  N  492  1  0.94680300  0.81109500  0.24948500  1
  N  513  1  0.84395100  0.17463200  0.79773900  1
  N  516  1  0.91455100  0.12562200  0.75360600  1
  N  519  1  0.86774700  0.24165500  0.71920200  1
  N  520  1  0.81033500  0.06280400  0.74916000  1
  N  541  1  0.16545500  0.83185400  0.79659600  1
  N  544  1  0.09396600  0.88208300  0.75188000  1
  N  547  1  0.13987100  0.76451000  0.71995700  1
  N  548  1  0.19685900  0.94506000  0.74910400  1
  N  569  1  0.83585900  0.84737500  0.70697000  1
  N  572  1  0.88327700  0.90969400  0.75556500  1
  N  575  1  0.76360800  0.86662500  0.78520800  1
  N  576  1  0.93902700  0.79974700  0.75980600  1
  N  597  1  0.17775000  0.16643900  0.70920300  1
  N  600  1  0.12919200  0.09424200  0.75114300  1
  N  603  1  0.24327900  0.14155600  0.78882600  1
  N  604  1  0.06480400  0.19755000  0.75725400  1
  N  625  1  0.16835100  0.82987000  0.20921600  1
  N  628  1  0.09596900  0.87849800  0.25094600  1
  N  631  1  0.14335600  0.76460900  0.28893300  1
  N  632  1  0.19915200  0.94305300  0.25706100  1
  N  653  1  0.84903300  0.17200200  0.20701600  1
  N  656  1  0.91144800  0.12457700  0.25560100  1
  N  659  1  0.86837200  0.24426200  0.28520500  1
  N  660  1  0.80158600  0.06875100  0.25984800  1
  N  681  1  0.52572400  0.05008700  0.20755500  1
  N  684  1  0.48430100  0.02864000  0.13803000  1
  N  687  1  0.42184100  0.98339000  0.22097800  1
  N  688  1  0.58682500  0.96073500  0.14855500  1
  N  709  1  0.95773100  0.52402200  0.70751700  1
  N  712  1  0.97911800  0.48252600  0.63804300  1
  N  715  1  0.02449500  0.42014300  0.72098500  1
  N  716  1  0.04707800  0.58505100  0.64847100  1
  N  737  1  0.48441000  0.05360400  0.80266900  1
  N  740  1  0.52578800  0.02036200  0.87059900  1
  N  743  1  0.58860800  0.99056400  0.78377600  1
  N  744  1  0.42305900  0.95674400  0.85402000  1
  N  765  1  0.05542600  0.52353100  0.30269100  1
  N  768  1  0.02197000  0.48199200  0.37059900  1
  N  771  1  0.99258000  0.41935700  0.28361500  1
  N  772  1  0.95856700  0.58475600  0.35412700  1
  N  1121  1  0.71373400  0.42147000  0.01898300  1
  N  1124  1  0.62356500  0.40417000  0.98722800  1
  N  1127  1  0.70229800  0.49166700  0.93988500  1
  N  1128  1  0.60804100  0.47430100  0.06566800  1
  N  1149  1  0.05502230  0.48559300  0.01892300  1
  N  1152  1  0.14446800  0.49361200  0.98784700  1
  N  1155  1  0.05989330  0.41232400  0.93991600  1
  N  1156  1  0.15270400  0.41991100  0.06630200  1
  N  1177  1  0.41319700  0.78227000  0.51911000  1
  N  1180  1  0.42716700  0.69060700  0.48729200  1
  N  1183  1  0.34393400  0.77392700  0.44005900  1
  N  1184  1  0.35821800  0.67772900  0.56584300  1
  N  1205  1  0.34917200  0.12331500  0.51883300  1
  N  1208  1  0.33731800  0.21120000  0.48780400  1
  N  1211  1  0.42355700  0.13182500  0.43972600  1
  N  1212  1  0.41247400  0.22263600  0.56612600  1
  N  1233  1  0.55423100  0.61257500  0.29735300  1
  N  1236  1  0.50519400  0.54195300  0.25332500  1
  N  1239  1  0.62118500  0.58869800  0.21879100  1
  N  1240  1  0.44238700  0.64619900  0.24879800  1
  N  1261  1  0.21138600  0.29104500  0.29697700  1
  N  1264  1  0.26157700  0.36259400  0.25227500  1
  N  1267  1  0.14406600  0.31661100  0.22028800  1
  N  1268  1  0.32462100  0.25975400  0.24948500  1
  N  1289  1  0.22176900  0.62329100  0.79773900  1
  N  1292  1  0.29236900  0.57428100  0.75360600  1
  N  1295  1  0.24556500  0.69031400  0.71920200  1
  N  1296  1  0.18815300  0.51146300  0.74916000  1
  N  1317  1  0.54327300  0.28051300  0.79659600  1
  N  1320  1  0.47178400  0.33074200  0.75188000  1
  N  1323  1  0.51768900  0.21316900  0.71995700  1
  N  1324  1  0.57467700  0.39371900  0.74910400  1
  N  1345  1  0.21367700  0.29603400  0.70697000  1
  N  1348  1  0.26109500  0.35835300  0.75556500  1
  N  1351  1  0.14142600  0.31528400  0.78520800  1
  N  1352  1  0.31684500  0.24840600  0.75980600  1
  N  1373  1  0.55556800  0.61509800  0.70920300  1
  N  1376  1  0.50701000  0.54290100  0.75114300  1
  N  1379  1  0.62109700  0.59021500  0.78882600  1
  N  1380  1  0.44262200  0.64620900  0.75725400  1
  N  1401  1  0.54616900  0.27852900  0.20921600  1
  N  1404  1  0.47378700  0.32715700  0.25094600  1
  N  1407  1  0.52117400  0.21326800  0.28893300  1
  N  1408  1  0.57697000  0.39171200  0.25706100  1
  N  1429  1  0.22685100  0.62066100  0.20701600  1
  N  1432  1  0.28926600  0.57323600  0.25560100  1
  N  1435  1  0.24619000  0.69292100  0.28520500  1
  N  1436  1  0.17940400  0.51741000  0.25984800  1
  N  1457  1  0.90354200  0.49874600  0.20755500  1
  N  1460  1  0.86211900  0.47729900  0.13803000  1
  N  1463  1  0.79965900  0.43204900  0.22097800  1
  N  1464  1  0.96464300  0.40939400  0.14855500  1
  N  1485  1  0.33554900  0.97268100  0.70751700  1
  N  1488  1  0.35693600  0.93118500  0.63804300  1
  N  1491  1  0.40231300  0.86880200  0.72098500  1
  N  1492  1  0.42489600  0.03371020  0.64847100  1
  N  1513  1  0.86222800  0.50226300  0.80266900  1
  N  1516  1  0.90360600  0.46902100  0.87059900  1
  N  1519  1  0.96642600  0.43922300  0.78377600  1
  N  1520  1  0.80087700  0.40540300  0.85402000  1
  N  1541  1  0.43324400  0.97219000  0.30269100  1
  N  1544  1  0.39978800  0.93065100  0.37059900  1
  N  1547  1  0.37039800  0.86801600  0.28361500  1
  N  1548  1  0.33638500  0.03341520  0.35412700  1
  O  353  1  0.20589900  0.00993100  0.06069000  1
  O  354  1  0.31873700  0.07123900  0.94536000  1
  O  355  1  0.22540900  0.05404100  0.06018500  1
  O  356  1  0.35289600  0.03719100  0.94467800  1
  O  381  1  0.80117500  0.98332100  0.06121900  1
  O  382  1  0.68592200  0.93504100  0.94516700  1
  O  383  1  0.77569600  0.94236300  0.06114700  1
  O  384  1  0.65412400  0.97131400  0.94480100  1
  O  409  1  0.99562400  0.20446300  0.56078800  1
  O  410  1  0.93759800  0.32111200  0.44550400  1
  O  411  1  0.95188700  0.22480300  0.56044200  1
  O  412  1  0.97352900  0.35329300  0.44492400  1
  O  437  1  0.02194400  0.79998500  0.56111700  1
  O  438  1  0.07405800  0.68878800  0.44500600  1
  O  439  1  0.06349100  0.77547900  0.56088600  1
  O  440  1  0.03987000  0.65476400  0.44453500  1
  O  465  1  0.06880200  0.21048200  0.22857600  1
  O  466  1  0.26066400  0.14984100  0.23568500  1
  O  467  1  0.04799500  0.17322500  0.24584100  1
  O  468  1  0.23948200  0.16200500  0.20379100  1
  O  493  1  0.94337900  0.79881600  0.22892900  1
  O  494  1  0.74943500  0.85911600  0.23776700  1
  O  495  1  0.96312000  0.83572700  0.24733700  1
  O  496  1  0.76902300  0.84541800  0.20564100  1
  O  521  1  0.79738500  0.06704300  0.72894200  1
  O  522  1  0.85799700  0.25894000  0.73611900  1
  O  523  1  0.83465200  0.04623700  0.74619200  1
  O  524  1  0.84574100  0.23779400  0.70423000  1
  O  549  1  0.20915900  0.94162200  0.72855800  1
  O  550  1  0.14870300  0.74771400  0.73744800  1
  O  551  1  0.17223900  0.96139100  0.74693500  1
  O  552  1  0.16240000  0.76725200  0.70530400  1
  O  577  1  0.93135000  0.78447300  0.77840700  1
  O  578  1  0.74677200  0.85807000  0.76765300  1
  O  579  1  0.95670900  0.82218400  0.76597300  1
  O  580  1  0.76596500  0.84401500  0.79983200  1
  O  605  1  0.06863200  0.21027300  0.77760500  1
  O  606  1  0.26096800  0.15229800  0.77251900  1
  O  607  1  0.04856800  0.17294900  0.75991100  1
  O  608  1  0.23848600  0.16287000  0.80422300  1
  O  633  1  0.21182300  0.93932200  0.27744200  1
  O  634  1  0.15415400  0.74687300  0.27267700  1
  O  635  1  0.17451900  0.95926100  0.25963900  1
  O  636  1  0.16463100  0.76948800  0.30434400  1
  O  661  1  0.78633200  0.07639200  0.27846900  1
  O  662  1  0.85981700  0.26108200  0.26764300  1
  O  663  1  0.82405400  0.05108900  0.26598400  1
  O  664  1  0.84576200  0.24191700  0.29983000  1
  O  689  1  0.57976400  0.93258000  0.15332600  1
  O  690  1  0.42820500  0.00054700  0.23889200  1
  O  691  1  0.58022000  0.96615600  0.12676300  1
  O  692  1  0.42864200  0.95528900  0.22609400  1
  O  717  1  0.07523400  0.57800500  0.65325100  1
  O  718  1  0.00737900  0.42653100  0.73891700  1
  O  719  1  0.04166100  0.57841100  0.62668600  1
  O  720  1  0.05261000  0.42693900  0.72606100  1
  O  745  1  0.43015300  0.92933600  0.84716800  1
  O  746  1  0.58248500  0.01065400  0.76770000  1
  O  747  1  0.42955600  0.95934400  0.87613400  1
  O  748  1  0.58178600  0.96360900  0.77584700  1
  O  773  1  0.93115400  0.57768400  0.34727700  1
  O  774  1  0.01274300  0.42551300  0.26760300  1
  O  775  1  0.96118300  0.57820600  0.37623100  1
  O  776  1  0.96566100  0.42619500  0.27562400  1
  O  1129  1  0.58371700  0.45859000  0.06069000  1
  O  1130  1  0.69655500  0.51989800  0.94536000  1
  O  1131  1  0.60322700  0.50270000  0.06018500  1
  O  1132  1  0.73071400  0.48585000  0.94467800  1
  O  1157  1  0.17899300  0.43198000  0.06121900  1
  O  1158  1  0.06374030  0.38370000  0.94516700  1
  O  1159  1  0.15351400  0.39102200  0.06114700  1
  O  1160  1  0.03194230  0.41997300  0.94480100  1
  O  1185  1  0.37344200  0.65312200  0.56078800  1
  O  1186  1  0.31541600  0.76977100  0.44550400  1
  O  1187  1  0.32970500  0.67346200  0.56044200  1
  O  1188  1  0.35134700  0.80195200  0.44492400  1
  O  1213  1  0.39976200  0.24864400  0.56111700  1
  O  1214  1  0.45187600  0.13744700  0.44500600  1
  O  1215  1  0.44130900  0.22413800  0.56088600  1
  O  1216  1  0.41768800  0.10342300  0.44453500  1
  O  1241  1  0.44662000  0.65914100  0.22857600  1
  O  1242  1  0.63848200  0.59850000  0.23568500  1
  O  1243  1  0.42581300  0.62188400  0.24584100  1
  O  1244  1  0.61730000  0.61066400  0.20379100  1
  O  1269  1  0.32119700  0.24747500  0.22892900  1
  O  1270  1  0.12725300  0.30777500  0.23776700  1
  O  1271  1  0.34093800  0.28438600  0.24733700  1
  O  1272  1  0.14684100  0.29407700  0.20564100  1
  O  1297  1  0.17520300  0.51570200  0.72894200  1
  O  1298  1  0.23581500  0.70759900  0.73611900  1
  O  1299  1  0.21247000  0.49489600  0.74619200  1
  O  1300  1  0.22355900  0.68645300  0.70423000  1
  O  1325  1  0.58697700  0.39028100  0.72855800  1
  O  1326  1  0.52652100  0.19637300  0.73744800  1
  O  1327  1  0.55005700  0.41005000  0.74693500  1
  O  1328  1  0.54021800  0.21591100  0.70530400  1
  O  1353  1  0.30916800  0.23313200  0.77840700  1
  O  1354  1  0.12459000  0.30672900  0.76765300  1
  O  1355  1  0.33452700  0.27084300  0.76597300  1
  O  1356  1  0.14378300  0.29267400  0.79983200  1
  O  1381  1  0.44645000  0.65893200  0.77760500  1
  O  1382  1  0.63878600  0.60095700  0.77251900  1
  O  1383  1  0.42638600  0.62160800  0.75991100  1
  O  1384  1  0.61630400  0.61152900  0.80422300  1
  O  1409  1  0.58964100  0.38798100  0.27744200  1
  O  1410  1  0.53197200  0.19553200  0.27267700  1
  O  1411  1  0.55233700  0.40792000  0.25963900  1
  O  1412  1  0.54244900  0.21814700  0.30434400  1
  O  1437  1  0.16415000  0.52505100  0.27846900  1
  O  1438  1  0.23763500  0.70974100  0.26764300  1
  O  1439  1  0.20187200  0.49974800  0.26598400  1
  O  1440  1  0.22358000  0.69057600  0.29983000  1
  O  1465  1  0.95758200  0.38123900  0.15332600  1
  O  1466  1  0.80602300  0.44920600  0.23889200  1
  O  1467  1  0.95803800  0.41481500  0.12676300  1
  O  1468  1  0.80646000  0.40394800  0.22609400  1
  O  1493  1  0.45305200  0.02666420  0.65325100  1
  O  1494  1  0.38519700  0.87519000  0.73891700  1
  O  1495  1  0.41947900  0.02707020  0.62668600  1
  O  1496  1  0.43042800  0.87559800  0.72606100  1
  O  1521  1  0.80797100  0.37799500  0.84716800  1
  O  1522  1  0.96030300  0.45931300  0.76770000  1
  O  1523  1  0.80737400  0.40800300  0.87613400  1
  O  1524  1  0.95960400  0.41226800  0.77584700  1
  O  1549  1  0.30897200  0.02634320  0.34727700  1
  O  1550  1  0.39056100  0.87417200  0.26760300  1
  O  1551  1  0.33900100  0.02686520  0.37623100  1
  O  1552  1  0.34347900  0.87485400  0.27562400  1
