# generated using pymatgen
data_H19(C10N3)2
_symmetry_space_group_name_H-M   'P 1'
_cell_length_a   61.77440000
_cell_length_b   66.13890000
_cell_length_c   66.17930000
_cell_angle_alpha   90.00000000
_cell_angle_beta   90.00000000
_cell_angle_gamma   90.00000000
_symmetry_Int_Tables_number   1
_chemical_formula_structural   H19(C10N3)2
_chemical_formula_sum   'H1216 C1280 N384'
_cell_volume   270388.16140650
_cell_formula_units_Z   64
loop_
 _symmetry_equiv_pos_site_id
 _symmetry_equiv_pos_as_xyz
  1  'x, y, z'
loop_
 _atom_site_type_symbol
 _atom_site_label
 _atom_site_symmetry_multiplicity
 _atom_site_fract_x
 _atom_site_fract_y
 _atom_site_fract_z
 _atom_site_occupancy
  H  7  1  0.97737800  0.41954600  0.88060300  1
  H  16  1  0.94749100  0.36971400  0.87713100  1
  H  19  1  0.98220400  0.35050200  0.86593200  1
  H  20  1  0.98573900  0.34903500  0.84136000  1
  H  21  1  0.01390100  0.39717800  0.92164300  1
  H  22  1  0.01402300  0.39622200  0.89683500  1
  H  23  1  0.94299700  0.38173900  0.95662800  1
  H  24  1  0.92466700  0.36967700  0.94375900  1
  H  25  1  0.01193300  0.41097900  0.80719200  1
  H  26  1  0.00905700  0.43268600  0.81851000  1
  H  31  1  0.92197000  0.34568600  0.91170800  1
  H  32  1  0.00268200  0.36576400  0.81372300  1
  H  33  1  0.98035700  0.44707000  0.83493200  1
  H  34  1  0.98960000  0.40253600  0.94859100  1
  H  41  1  0.47737700  0.07424500  0.12935600  1
  H  50  1  0.44749900  0.12406900  0.13281300  1
  H  53  1  0.48214300  0.14329100  0.14401600  1
  H  54  1  0.48559600  0.14476000  0.16860000  1
  H  55  1  0.51395900  0.09673000  0.08830700  1
  H  56  1  0.51406900  0.09763100  0.11311800  1
  H  57  1  0.44300000  0.11193900  0.05333600  1
  H  58  1  0.42466300  0.12398900  0.06622400  1
  H  59  1  0.51191200  0.08282900  0.20276900  1
  H  60  1  0.50903900  0.06111800  0.19145300  1
  H  65  1  0.42196300  0.14806000  0.09810300  1
  H  66  1  0.50262500  0.12805700  0.19622600  1
  H  67  1  0.48032200  0.04673800  0.17503800  1
  H  68  1  0.48967200  0.09127400  0.06136400  1
  H  75  1  0.22867700  0.36901000  0.17788600  1
  H  84  1  0.19669000  0.37336900  0.12856600  1
  H  87  1  0.23038800  0.38501400  0.10901900  1
  H  88  1  0.23332000  0.40967900  0.10787500  1
  H  89  1  0.26358300  0.32846300  0.15431900  1
  H  90  1  0.26383100  0.35328800  0.15342300  1
  H  91  1  0.19224500  0.29367900  0.13999900  1
  H  92  1  0.17371100  0.30676000  0.12846600  1
  H  93  1  0.26088900  0.44355700  0.16978100  1
  H  94  1  0.25897600  0.43176100  0.19130500  1
  H  99  1  0.17093000  0.33790200  0.10463400  1
  H  100  1  0.25033500  0.43716500  0.12437500  1
  H  101  1  0.23049800  0.41355400  0.20587100  1
  H  102  1  0.23881400  0.30182700  0.16078000  1
  H  109  1  0.72865400  0.12473400  0.83215300  1
  H  118  1  0.69670100  0.12036600  0.88149900  1
  H  121  1  0.73048500  0.10875900  0.90103400  1
  H  122  1  0.73353800  0.08410700  0.90219300  1
  H  123  1  0.76354100  0.16525400  0.85553800  1
  H  124  1  0.76380500  0.14043700  0.85649400  1
  H  125  1  0.69224100  0.20004900  0.87002700  1
  H  126  1  0.67371100  0.18696900  0.88157000  1
  H  127  1  0.76100600  0.05029500  0.84032600  1
  H  128  1  0.75902600  0.06199600  0.81874400  1
  H  133  1  0.67093600  0.15580700  0.90541000  1
  H  134  1  0.75047100  0.05659700  0.88565200  1
  H  135  1  0.73055300  0.08018000  0.80416100  1
  H  136  1  0.73880700  0.19192500  0.84925300  1
  H  143  1  0.50283900  0.07400500  0.88047500  1
  H  152  1  0.53224000  0.12470000  0.87564100  1
  H  155  1  0.49733800  0.14284300  0.86463400  1
  H  156  1  0.49397600  0.14382600  0.84003300  1
  H  157  1  0.46871200  0.09462400  0.92219200  1
  H  158  1  0.46771800  0.09493300  0.89736100  1
  H  159  1  0.53573600  0.12105700  0.95659700  1
  H  160  1  0.55389100  0.13203400  0.94254100  1
  H  161  1  0.46836400  0.08150000  0.80677000  1
  H  162  1  0.47067200  0.06001700  0.81861400  1
  H  167  1  0.55714300  0.15128600  0.90910800  1
  H  168  1  0.47758400  0.12649200  0.81259100  1
  H  169  1  0.49880800  0.04560300  0.83546400  1
  H  170  1  0.49834400  0.09046800  0.94885300  1
  H  177  1  0.00264400  0.41986800  0.12953700  1
  H  186  1  0.03223600  0.36926100  0.13433500  1
  H  189  1  0.99744200  0.35097300  0.14524900  1
  H  190  1  0.99411700  0.34994100  0.16985200  1
  H  191  1  0.96861300  0.39904400  0.08771600  1
  H  192  1  0.96761700  0.39881100  0.11254900  1
  H  193  1  0.03577300  0.37285900  0.05337500  1
  H  194  1  0.05396600  0.36196700  0.06745700  1
  H  195  1  0.96810800  0.41210700  0.20319000  1
  H  196  1  0.97032700  0.43361900  0.19138200  1
  H  201  1  0.05715400  0.34265900  0.10078800  1
  H  202  1  0.97750000  0.36717000  0.19728500  1
  H  203  1  0.99844200  0.44816100  0.17462100  1
  H  204  1  0.99829300  0.40335600  0.06108000  1
  H  211  1  0.25486100  0.12115200  0.17872800  1
  H  220  1  0.28346000  0.11672500  0.12776600  1
  H  223  1  0.24821300  0.10538100  0.10996900  1
  H  224  1  0.24524100  0.08070900  0.10899300  1
  H  225  1  0.21948600  0.16244800  0.15828200  1
  H  226  1  0.21892900  0.13758000  0.15805500  1
  H  227  1  0.28583500  0.19776700  0.13146000  1
  H  228  1  0.30404200  0.18394500  0.12026300  1
  H  229  1  0.22214200  0.04653900  0.17187900  1
  H  230  1  0.22477900  0.05838100  0.19328700  1
  H  235  1  0.30780700  0.15000700  0.10111900  1
  H  236  1  0.22874200  0.05316200  0.12703400  1
  H  237  1  0.25288800  0.07622500  0.20698000  1
  H  238  1  0.24872100  0.18960100  0.16215000  1
  H  245  1  0.75488500  0.37256600  0.83133700  1
  H  254  1  0.78345800  0.37698100  0.88234400  1
  H  257  1  0.74815600  0.38832800  0.90010300  1
  H  258  1  0.74509900  0.41299100  0.90107900  1
  H  259  1  0.71954000  0.33131300  0.85161200  1
  H  260  1  0.71897900  0.35617800  0.85188900  1
  H  261  1  0.78580200  0.29594400  0.87859200  1
  H  262  1  0.80400400  0.30975300  0.88981100  1
  H  263  1  0.72209200  0.44710000  0.83824200  1
  H  264  1  0.72477700  0.43534000  0.81678300  1
  H  269  1  0.80781100  0.34366800  0.90895600  1
  H  270  1  0.72870400  0.44057100  0.88300400  1
  H  271  1  0.75288600  0.41749000  0.80307700  1
  H  272  1  0.74869000  0.30412200  0.84790700  1
  H  279  1  0.99406300  0.57422500  0.12559900  1
  H  288  1  0.03311100  0.62149100  0.13384800  1
  H  291  1  0.00132500  0.64124400  0.14738500  1
  H  292  1  0.99983800  0.64061800  0.17216600  1
  H  293  1  0.96529400  0.60133300  0.08738900  1
  H  294  1  0.96466300  0.60150800  0.11219700  1
  H  295  1  0.03785500  0.61347000  0.05390200  1
  H  296  1  0.05670700  0.62370600  0.06764300  1
  H  297  1  0.97448900  0.57622100  0.20460300  1
  H  298  1  0.97370500  0.55586500  0.19069300  1
  H  303  1  0.05947000  0.64649200  0.09875600  1
  H  304  1  0.97953300  0.62236100  0.19814200  1
  H  305  1  0.96623300  0.54730100  0.15095000  1
  H  306  1  0.99072200  0.59315300  0.06130800  1
  H  313  1  0.49426400  0.91963900  0.88424600  1
  H  322  1  0.53311500  0.87228500  0.87599300  1
  H  325  1  0.50131700  0.85258400  0.86249300  1
  H  326  1  0.49979700  0.85320400  0.83771500  1
  H  327  1  0.46536600  0.89245200  0.92250400  1
  H  328  1  0.46472100  0.89236900  0.89769300  1
  H  329  1  0.53794700  0.88033500  0.95593200  1
  H  330  1  0.55676600  0.87008200  0.94214800  1
  H  331  1  0.47429200  0.91761300  0.80533800  1
  H  332  1  0.47369800  0.93799600  0.81921500  1
  H  337  1  0.55947300  0.84724400  0.91110400  1
  H  338  1  0.47936200  0.87137800  0.81183100  1
  H  339  1  0.46645500  0.94663200  0.85885500  1
  H  340  1  0.49075000  0.90061500  0.94859000  1
  H  347  1  0.74430000  0.62481500  0.82925800  1
  H  356  1  0.78590000  0.62043200  0.87379100  1
  H  359  1  0.75679800  0.60832300  0.89712300  1
  H  360  1  0.75376600  0.58366900  0.89845900  1
  H  361  1  0.71623300  0.66563900  0.85623300  1
  H  362  1  0.71587200  0.64083300  0.85728600  1
  H  363  1  0.78899900  0.70023800  0.86287700  1
  H  364  1  0.80883300  0.68682300  0.87187400  1
  H  365  1  0.71324800  0.55167100  0.84501200  1
  H  366  1  0.70995200  0.56263900  0.82351600  1
  H  371  1  0.81182100  0.65694200  0.89692200  1
  H  372  1  0.76520800  0.55719900  0.87365800  1
  H  373  1  0.72681000  0.58084000  0.80185600  1
  H  374  1  0.74042100  0.69197200  0.84627400  1
  H  381  1  0.24427400  0.86892000  0.18064000  1
  H  390  1  0.28589700  0.87327900  0.13609100  1
  H  393  1  0.25671900  0.88534300  0.11273700  1
  H  394  1  0.25354000  0.90998500  0.11138200  1
  H  395  1  0.21622500  0.82810400  0.15381100  1
  H  396  1  0.21586300  0.85290000  0.15269700  1
  H  397  1  0.28897400  0.79347700  0.14705700  1
  H  398  1  0.30881900  0.80688500  0.13806700  1
  H  399  1  0.21289600  0.94171200  0.16452900  1
  H  400  1  0.20968900  0.93100400  0.18620500  1
  H  405  1  0.31185100  0.83670700  0.11302900  1
  H  406  1  0.26502900  0.93649400  0.13596900  1
  H  407  1  0.22684100  0.91303500  0.20793400  1
  H  408  1  0.24039900  0.80174600  0.16364000  1
  H  415  1  0.48727300  0.91973400  0.12492400  1
  H  424  1  0.44866500  0.87243700  0.13448500  1
  H  427  1  0.48073100  0.85314200  0.14830300  1
  H  428  1  0.48205200  0.85443200  0.17307500  1
  H  429  1  0.51511000  0.89348300  0.08657500  1
  H  430  1  0.51636100  0.89391600  0.11138400  1
  H  431  1  0.44554000  0.87175900  0.05344500  1
  H  432  1  0.42638500  0.86326800  0.06806100  1
  H  433  1  0.50587900  0.91995600  0.20422900  1
  H  434  1  0.50718200  0.93979500  0.18964200  1
  H  439  1  0.42254900  0.84529500  0.10189400  1
  H  440  1  0.50344800  0.87417800  0.19816000  1
  H  441  1  0.51502200  0.94723200  0.14900100  1
  H  442  1  0.48449500  0.90135600  0.06053000  1
  H  449  1  0.98731000  0.57404200  0.88495900  1
  H  458  1  0.94867100  0.62136700  0.87540700  1
  H  461  1  0.98065200  0.64063500  0.86157000  1
  H  462  1  0.98190000  0.63932700  0.83679800  1
  H  463  1  0.01511700  0.60038500  0.92332300  1
  H  464  1  0.01637800  0.59991000  0.89851200  1
  H  465  1  0.94547400  0.62187200  0.95644300  1
  H  466  1  0.92634100  0.63041000  0.94182600  1
  H  467  1  0.00587700  0.57383000  0.80564900  1
  H  468  1  0.00721800  0.55399900  0.82024400  1
  H  473  1  0.92257300  0.64850600  0.90800700  1
  H  474  1  0.00343100  0.61959800  0.81172100  1
  H  475  1  0.01506500  0.54655700  0.86086700  1
  H  476  1  0.98450400  0.59238500  0.94935400  1
  H  483  1  0.73250700  0.87116700  0.82951500  1
  H  492  1  0.69670700  0.87736600  0.87745700  1
  H  495  1  0.72830900  0.89110900  0.89740700  1
  H  496  1  0.72993100  0.91594800  0.89703100  1
  H  497  1  0.76369900  0.83149400  0.85356000  1
  H  498  1  0.76438900  0.85635200  0.85395600  1
  H  499  1  0.69497700  0.79630900  0.87440300  1
  H  500  1  0.67554200  0.81020200  0.88346500  1
  H  501  1  0.75351700  0.94976000  0.83386500  1
  H  502  1  0.75561800  0.93617700  0.81361400  1
  H  507  1  0.67040400  0.84218700  0.90235300  1
  H  508  1  0.71338900  0.94210500  0.86709700  1
  H  509  1  0.73161800  0.91412200  0.79947500  1
  H  510  1  0.73414700  0.80478500  0.84589900  1
  H  517  1  0.23219000  0.62262600  0.18050200  1
  H  526  1  0.19662700  0.61637900  0.13243800  1
  H  529  1  0.22841300  0.60262300  0.11259500  1
  H  530  1  0.23014900  0.57778600  0.11300800  1
  H  531  1  0.26353000  0.66221200  0.15668000  1
  H  532  1  0.26421400  0.63735900  0.15625400  1
  H  533  1  0.19493000  0.69744000  0.13546800  1
  H  534  1  0.17551100  0.68355100  0.12637000  1
  H  535  1  0.25330700  0.54408500  0.17624500  1
  H  536  1  0.25518600  0.55760100  0.19657700  1
  H  541  1  0.17033100  0.65152600  0.10754900  1
  H  542  1  0.21328200  0.55161800  0.14291300  1
  H  543  1  0.23112000  0.57969200  0.21058200  1
  H  544  1  0.23404800  0.68897100  0.16404800  1
  H  551  1  0.49023200  0.92212000  0.38211000  1
  H  560  1  0.44603200  0.87918600  0.37641700  1
  H  563  1  0.47431100  0.85511500  0.36461700  1
  H  564  1  0.47810200  0.85382900  0.34009600  1
  H  565  1  0.51535700  0.89398500  0.42312900  1
  H  566  1  0.51633300  0.89297200  0.39837100  1
  H  567  1  0.44180400  0.88834000  0.45637700  1
  H  568  1  0.42200300  0.88004300  0.44243300  1
  H  569  1  0.52324400  0.90454800  0.31040100  1
  H  570  1  0.52778300  0.92580600  0.32190600  1
  H  575  1  0.42039700  0.85447600  0.41019800  1
  H  576  1  0.46956500  0.87686800  0.31376000  1
  H  577  1  0.50676500  0.94854000  0.33695400  1
  H  578  1  0.49037800  0.90533900  0.44872500  1
  H  585  1  0.99019100  0.57164700  0.62773400  1
  H  594  1  0.94599200  0.61454000  0.63333700  1
  H  597  1  0.97404200  0.63865000  0.64522100  1
  H  598  1  0.97774900  0.63993000  0.66974100  1
  H  599  1  0.01540000  0.59990700  0.58670600  1
  H  600  1  0.01634400  0.60086400  0.61147200  1
  H  601  1  0.94185600  0.60520800  0.55341000  1
  H  602  1  0.92204000  0.61350700  0.56734800  1
  H  603  1  0.02318300  0.58926700  0.69942700  1
  H  604  1  0.02771200  0.56799700  0.68793400  1
  H  609  1  0.92038400  0.63920500  0.59939600  1
  H  610  1  0.96946400  0.61685900  0.69607900  1
  H  611  1  0.00656300  0.54529300  0.67295700  1
  H  612  1  0.99057000  0.58847500  0.56107900  1
  H  619  1  0.73759800  0.86764100  0.67582600  1
  H  628  1  0.69791800  0.87647400  0.62933400  1
  H  631  1  0.72954600  0.88951100  0.60893500  1
  H  632  1  0.73191100  0.91424600  0.60946700  1
  H  633  1  0.76567300  0.82921800  0.64796400  1
  H  634  1  0.76657100  0.85403900  0.64795300  1
  H  635  1  0.69280800  0.79621500  0.63587100  1
  H  636  1  0.67392000  0.81033900  0.62620000  1
  H  637  1  0.76044600  0.94589400  0.67304700  1
  H  638  1  0.76058300  0.93229900  0.69359000  1
  H  643  1  0.67201700  0.84347000  0.60332000  1
  H  644  1  0.75314500  0.93971500  0.62710200  1
  H  645  1  0.76720700  0.89644800  0.70255500  1
  H  646  1  0.73967200  0.80343200  0.65684700  1
  H  653  1  0.23728300  0.62620000  0.33422800  1
  H  662  1  0.19774800  0.61744400  0.38080600  1
  H  665  1  0.22944000  0.60436000  0.40115100  1
  H  666  1  0.23184500  0.57962900  0.40063100  1
  H  667  1  0.26553700  0.66456800  0.36184900  1
  H  668  1  0.26640000  0.63975200  0.36192900  1
  H  669  1  0.19274500  0.69768900  0.37411500  1
  H  670  1  0.17385300  0.68361600  0.38385100  1
  H  671  1  0.26017600  0.54797100  0.33700700  1
  H  672  1  0.26022600  0.56153200  0.31643900  1
  H  677  1  0.17180600  0.65051300  0.40670900  1
  H  678  1  0.25294400  0.55412900  0.38294000  1
  H  679  1  0.26680100  0.59736400  0.30744500  1
  H  680  1  0.23960700  0.69042100  0.35318900  1
  H  687  1  0.00130700  0.57244200  0.38101600  1
  H  696  1  0.03333100  0.62225400  0.37629700  1
  H  699  1  0.00006100  0.64121900  0.36407500  1
  H  700  1  0.99740600  0.64194000  0.33938600  1
  H  701  1  0.96802500  0.59405300  0.42186200  1
  H  702  1  0.96730600  0.59466400  0.39703400  1
  H  703  1  0.03538100  0.61825800  0.45727300  1
  H  704  1  0.05412500  0.62871900  0.44351300  1
  H  705  1  0.96918600  0.58048600  0.30641800  1
  H  706  1  0.96984600  0.55912600  0.31869300  1
  H  711  1  0.05833600  0.64819300  0.41030100  1
  H  712  1  0.98101600  0.62491500  0.31164000  1
  H  713  1  0.99710500  0.54373400  0.33646200  1
  H  714  1  0.99767000  0.58830600  0.44869500  1
  H  721  1  0.50111300  0.92111400  0.62880500  1
  H  730  1  0.53343400  0.87142200  0.63340000  1
  H  733  1  0.50048200  0.85229600  0.64564300  1
  H  734  1  0.49778800  0.85153500  0.67032400  1
  H  735  1  0.46798000  0.89935700  0.58787000  1
  H  736  1  0.46725500  0.89874300  0.61269900  1
  H  737  1  0.53545600  0.87557200  0.55242500  1
  H  738  1  0.55424900  0.86515800  0.56616500  1
  H  739  1  0.46847700  0.91265500  0.70314100  1
  H  740  1  0.46902900  0.93404500  0.69090300  1
  H  745  1  0.55850600  0.84558600  0.59922400  1
  H  746  1  0.48104800  0.86828600  0.69799500  1
  H  747  1  0.49642900  0.94967100  0.67344500  1
  H  748  1  0.49767500  0.90538800  0.56106800  1
  H  755  1  0.74399200  0.62808600  0.67536800  1
  H  764  1  0.78249000  0.61800400  0.62769300  1
  H  767  1  0.75086900  0.60330000  0.60935100  1
  H  768  1  0.74979200  0.57854800  0.61117800  1
  H  769  1  0.71593500  0.66570700  0.64877800  1
  H  770  1  0.71481200  0.64087500  0.64933000  1
  H  771  1  0.78538300  0.69905600  0.62711500  1
  H  772  1  0.80434600  0.68452600  0.61811300  1
  H  773  1  0.72490500  0.54887400  0.67694600  1
  H  774  1  0.72317100  0.56390700  0.69640500  1
  H  779  1  0.80838100  0.65050100  0.60013600  1
  H  780  1  0.72891000  0.55379200  0.63085100  1
  H  781  1  0.71652000  0.60773800  0.70253200  1
  H  782  1  0.74659000  0.69173700  0.65689400  1
  H  789  1  0.24396800  0.86575800  0.33452500  1
  H  798  1  0.28247000  0.87584600  0.38220000  1
  H  801  1  0.25080400  0.89055300  0.40054200  1
  H  802  1  0.24968600  0.91530200  0.39871800  1
  H  803  1  0.21592100  0.82816300  0.36095400  1
  H  804  1  0.21479100  0.85298500  0.36043300  1
  H  805  1  0.28532700  0.79479400  0.38281500  1
  H  806  1  0.30429600  0.80932400  0.39180200  1
  H  807  1  0.22497200  0.94498700  0.33292400  1
  H  808  1  0.22321700  0.92995300  0.31346200  1
  H  813  1  0.30836400  0.84333700  0.40974900  1
  H  814  1  0.22885700  0.94006400  0.37899200  1
  H  815  1  0.21641200  0.88618000  0.30739500  1
  H  816  1  0.24651000  0.80209500  0.35305100  1
  H  823  1  0.48945600  0.07633500  0.62480400  1
  H  832  1  0.53288500  0.12239200  0.63299100  1
  H  835  1  0.50243900  0.14185500  0.64860800  1
  H  836  1  0.50322600  0.14009400  0.67338400  1
  H  837  1  0.46364800  0.10427000  0.58761300  1
  H  838  1  0.46338100  0.10453800  0.61242300  1
  H  839  1  0.53624400  0.11413700  0.55326400  1
  H  840  1  0.55528600  0.12448600  0.56667000  1
  H  841  1  0.49118100  0.07211100  0.70567700  1
  H  842  1  0.48380500  0.05368500  0.69092300  1
  H  847  1  0.55827300  0.14797600  0.59766600  1
  H  848  1  0.51803100  0.11117600  0.69838500  1
  H  849  1  0.46491400  0.04901000  0.65022100  1
  H  850  1  0.48850100  0.09468000  0.56141100  1
  H  857  1  0.98930900  0.41722900  0.38509900  1
  H  866  1  0.03280700  0.37128100  0.37694300  1
  H  869  1  0.00252000  0.35168100  0.36137300  1
  H  870  1  0.00334100  0.35342000  0.33660400  1
  H  871  1  0.96352600  0.38914200  0.42232700  1
  H  872  1  0.96324100  0.38890400  0.39751100  1
  H  873  1  0.03619500  0.37978000  0.45664300  1
  H  874  1  0.05527700  0.36950300  0.44321100  1
  H  875  1  0.99101500  0.42137200  0.30422400  1
  H  876  1  0.98365100  0.43980900  0.31896500  1
  H  881  1  0.05831700  0.34587700  0.41242400  1
  H  882  1  0.01782500  0.38227100  0.31155800  1
  H  883  1  0.96486200  0.44461300  0.35960600  1
  H  884  1  0.98832100  0.39894100  0.44850100  1
  H  891  1  0.23727500  0.12744100  0.33448400  1
  H  900  1  0.28206000  0.11829200  0.37957600  1
  H  903  1  0.25176800  0.10255600  0.39916900  1
  H  904  1  0.25293600  0.07782300  0.39701100  1
  H  905  1  0.21281100  0.16434500  0.36338100  1
  H  906  1  0.21230500  0.13951000  0.36356500  1
  H  907  1  0.28595600  0.19811600  0.37161500  1
  H  908  1  0.30512000  0.18444400  0.38139600  1
  H  909  1  0.24263300  0.04706200  0.32779700  1
  H  910  1  0.23286700  0.06178400  0.31036100  1
  H  915  1  0.30805600  0.15400600  0.40490600  1
  H  916  1  0.26722200  0.05405400  0.36961600  1
  H  917  1  0.21378700  0.10268100  0.30584200  1
  H  918  1  0.23799800  0.19020100  0.35265900  1
  H  925  1  0.73736600  0.36640800  0.67556500  1
  H  934  1  0.78206800  0.37555800  0.63037800  1
  H  937  1  0.75168500  0.39129900  0.61085100  1
  H  938  1  0.75275000  0.41604100  0.61301800  1
  H  939  1  0.71284700  0.32952300  0.64689600  1
  H  940  1  0.71233300  0.35434700  0.64665700  1
  H  941  1  0.78597900  0.29574400  0.63836700  1
  H  942  1  0.80511600  0.30940900  0.62853600  1
  H  943  1  0.74261900  0.44680700  0.68221500  1
  H  944  1  0.73293100  0.43207700  0.69968100  1
  H  949  1  0.80802400  0.33985600  0.60502000  1
  H  950  1  0.76722500  0.43981700  0.64038500  1
  H  951  1  0.71383700  0.39111000  0.70415400  1
  H  952  1  0.73803000  0.30363400  0.65736600  1
  H  959  1  0.98921500  0.41844500  0.62571100  1
  H  968  1  0.94563200  0.37340100  0.63451900  1
  H  971  1  0.97609000  0.35281500  0.64931900  1
  H  972  1  0.97638600  0.35435100  0.67411600  1
  H  973  1  0.01403100  0.39085900  0.58758900  1
  H  974  1  0.01500400  0.39105300  0.61240800  1
  H  975  1  0.94356200  0.37369500  0.55356100  1
  H  976  1  0.92378700  0.36601200  0.56784100  1
  H  977  1  0.99256800  0.42133300  0.70668600  1
  H  978  1  0.99881100  0.44005000  0.69184900  1
  H  983  1  0.91873600  0.34749400  0.60004700  1
  H  984  1  0.96302300  0.38378200  0.69969000  1
  H  985  1  0.01571000  0.44452500  0.64985300  1
  H  986  1  0.98430000  0.40082300  0.56120600  1
  H  993  1  0.48920100  0.07527800  0.38421500  1
  H  1002  1  0.44560800  0.12030700  0.37544100  1
  H  1005  1  0.47593000  0.14094300  0.36066400  1
  H  1006  1  0.47617600  0.13941800  0.33587500  1
  H  1007  1  0.51403100  0.10298200  0.42236300  1
  H  1008  1  0.51500600  0.10272300  0.39754100  1
  H  1009  1  0.44353000  0.11993600  0.45639800  1
  H  1010  1  0.42374600  0.12760400  0.44211400  1
  H  1011  1  0.49261800  0.07248600  0.30323700  1
  H  1012  1  0.49882000  0.05374700  0.31805700  1
  H  1017  1  0.41871500  0.14619900  0.40997400  1
  H  1018  1  0.46303300  0.11001900  0.31028100  1
  H  1019  1  0.51567800  0.04921700  0.36006000  1
  H  1020  1  0.48430500  0.09288900  0.44874500  1
  H  1027  1  0.24003000  0.36660900  0.33329900  1
  H  1036  1  0.19587600  0.37606200  0.37821800  1
  H  1039  1  0.22599200  0.39155500  0.39823200  1
  H  1040  1  0.22571000  0.41631800  0.39611200  1
  H  1041  1  0.26437600  0.32904200  0.36141100  1
  H  1042  1  0.26534900  0.35388100  0.36108600  1
  H  1043  1  0.19385900  0.29507900  0.37839900  1
  H  1044  1  0.17415800  0.30940000  0.38617400  1
  H  1045  1  0.24080200  0.44747000  0.32815900  1
  H  1046  1  0.24825500  0.43230800  0.31010300  1
  H  1051  1  0.16940500  0.34168700  0.40474100  1
  H  1052  1  0.21234300  0.44106900  0.36655700  1
  H  1053  1  0.26624800  0.39138100  0.30636200  1
  H  1054  1  0.23435700  0.30274000  0.35093100  1
  H  1061  1  0.74004100  0.12725000  0.67672700  1
  H  1070  1  0.69589100  0.11778000  0.63178200  1
  H  1073  1  0.72606400  0.10226300  0.61180000  1
  H  1074  1  0.72586500  0.07749500  0.61394600  1
  H  1075  1  0.76438400  0.16478700  0.64879400  1
  H  1076  1  0.76537000  0.13995500  0.64907500  1
  H  1077  1  0.69389700  0.19876400  0.63158000  1
  H  1078  1  0.67419800  0.18444200  0.62380200  1
  H  1079  1  0.74075600  0.04639100  0.68193100  1
  H  1080  1  0.74825100  0.06155800  0.69996500  1
  H  1085  1  0.66944700  0.15214600  0.60523900  1
  H  1086  1  0.71237700  0.05274400  0.64346000  1
  H  1087  1  0.76627200  0.10255300  0.70365500  1
  H  1088  1  0.73440400  0.19110500  0.65907000  1
  H  1099  1  0.00997500  0.36036900  0.77472700  1
  H  1100  1  0.01239200  0.36086500  0.73850000  1
  H  1103  1  0.94925500  0.44456700  0.72098400  1
  H  1104  1  0.92715700  0.44775900  0.73742200  1
  H  1105  1  0.90910700  0.41743500  0.72150200  1
  H  1106  1  0.93066200  0.41674700  0.70361100  1
  H  1107  1  0.91314500  0.43791500  0.70464800  1
  H  1110  1  0.93396200  0.45058700  0.77238200  1
  H  1111  1  0.93528700  0.43333500  0.79242300  1
  H  1112  1  0.90096000  0.43228600  0.75895300  1
  H  1113  1  0.89724800  0.43958100  0.78438600  1
  H  1114  1  0.90361200  0.41412200  0.77845300  1
  H  1127  1  0.50992600  0.13348900  0.23520300  1
  H  1128  1  0.51236100  0.13300600  0.27143200  1
  H  1131  1  0.44935600  0.04923100  0.28904500  1
  H  1132  1  0.42727700  0.04598300  0.27259400  1
  H  1133  1  0.40918400  0.07632700  0.28844500  1
  H  1134  1  0.43071900  0.07705400  0.30635600  1
  H  1135  1  0.41321900  0.05587400  0.30533400  1
  H  1138  1  0.43410500  0.04312200  0.23763600  1
  H  1139  1  0.43541500  0.06034800  0.21757300  1
  H  1140  1  0.40105300  0.06133600  0.25101100  1
  H  1141  1  0.39738400  0.05410200  0.22555400  1
  H  1142  1  0.40370600  0.07955200  0.23156000  1
  H  1155  1  0.25499200  0.47530000  0.11689700  1
  H  1156  1  0.25780100  0.51148900  0.11678900  1
  H  1159  1  0.20616300  0.53064400  0.20747400  1
  H  1160  1  0.18562000  0.51354600  0.21381200  1
  H  1161  1  0.16268200  0.52832900  0.18510500  1
  H  1162  1  0.18292200  0.54729400  0.18245900  1
  H  1163  1  0.16827000  0.54503000  0.20533800  1
  H  1166  1  0.19185800  0.47833000  0.21538500  1
  H  1167  1  0.19070200  0.45835200  0.19802700  1
  H  1168  1  0.15680300  0.49191300  0.20174100  1
  H  1169  1  0.15394100  0.46609900  0.20808600  1
  H  1170  1  0.15700700  0.47334200  0.18245600  1
  H  1183  1  0.75509200  0.01848500  0.89319000  1
  H  1184  1  0.75790900  0.98229600  0.89330800  1
  H  1187  1  0.70619800  0.96305800  0.80264400  1
  H  1188  1  0.68570600  0.98020200  0.79629300  1
  H  1189  1  0.66277700  0.96554700  0.82509900  1
  H  1190  1  0.68294100  0.94650200  0.82768300  1
  H  1191  1  0.66821700  0.94882400  0.80485300  1
  H  1194  1  0.69196600  0.01541600  0.79469100  1
  H  1195  1  0.69083900  0.03540300  0.81203900  1
  H  1196  1  0.65691200  0.00186300  0.80836300  1
  H  1197  1  0.65406300  0.02767700  0.80201800  1
  H  1198  1  0.65714900  0.02043700  0.82764700  1
  H  1211  1  0.46934100  0.13044200  0.77421600  1
  H  1212  1  0.46728700  0.13042900  0.73801300  1
  H  1215  1  0.53989000  0.05358900  0.71805700  1
  H  1216  1  0.56072200  0.05089300  0.73590500  1
  H  1217  1  0.57741500  0.08348400  0.72367900  1
  H  1218  1  0.55717500  0.08479600  0.70462400  1
  H  1219  1  0.57593400  0.06454700  0.70479100  1
  H  1222  1  0.55209900  0.04523500  0.77003700  1
  H  1223  1  0.54720000  0.06045600  0.79117300  1
  H  1224  1  0.58403900  0.06745100  0.76099200  1
  H  1225  1  0.58625400  0.05800700  0.78591500  1
  H  1226  1  0.57789300  0.08330600  0.78183400  1
  H  1239  1  0.96913100  0.36320800  0.23563300  1
  H  1240  1  0.96704600  0.36313700  0.27183900  1
  H  1243  1  0.03982100  0.43977600  0.29205200  1
  H  1244  1  0.06066800  0.44246600  0.27421900  1
  H  1245  1  0.07725000  0.40979100  0.28634900  1
  H  1246  1  0.05700200  0.40848000  0.30539600  1
  H  1247  1  0.07582800  0.42867400  0.30529300  1
  H  1250  1  0.05204800  0.44825400  0.24009300  1
  H  1251  1  0.04714900  0.43308200  0.21892000  1
  H  1252  1  0.08395500  0.42598700  0.24911100  1
  H  1253  1  0.08619800  0.43547100  0.22420500  1
  H  1254  1  0.07780000  0.41017500  0.22823900  1
  H  1267  1  0.21693900  0.01615000  0.12783900  1
  H  1268  1  0.21387600  0.98009600  0.12735900  1
  H  1271  1  0.30647100  0.95184700  0.17637200  1
  H  1272  1  0.32202800  0.97199200  0.18568500  1
  H  1273  1  0.33947400  0.97568600  0.15119500  1
  H  1274  1  0.32386500  0.95483600  0.14259300  1
  H  1275  1  0.34349500  0.95141600  0.16180900  1
  H  1278  1  0.31825900  0.02816100  0.16889400  1
  H  1279  1  0.33216700  0.00563400  0.17372700  1
  H  1280  1  0.29742900  0.02475700  0.20095700  1
  H  1281  1  0.32573500  0.02446400  0.20544200  1
  H  1282  1  0.31082300  0.00161800  0.20630000  1
  H  1295  1  0.71699900  0.47757200  0.88236500  1
  H  1296  1  0.71393900  0.51363300  0.88282600  1
  H  1299  1  0.80628800  0.54184800  0.83343400  1
  H  1300  1  0.82173800  0.52169400  0.82398100  1
  H  1301  1  0.83947300  0.51796000  0.85835300  1
  H  1302  1  0.82396400  0.53882500  0.86707200  1
  H  1303  1  0.84343800  0.54222600  0.84771500  1
  H  1306  1  0.81816000  0.46554400  0.84092300  1
  H  1307  1  0.83200100  0.48807300  0.83594700  1
  H  1308  1  0.79715000  0.46879400  0.80896100  1
  H  1309  1  0.82542700  0.46920600  0.80431600  1
  H  1310  1  0.81039300  0.49198300  0.80349700  1
  H  1323  1  0.97306900  0.62622100  0.23635800  1
  H  1324  1  0.97290700  0.62652700  0.27264100  1
  H  1327  1  0.05299300  0.55913100  0.29377000  1
  H  1328  1  0.06029900  0.54495500  0.27253700  1
  H  1329  1  0.08315900  0.58379000  0.28676800  1
  H  1330  1  0.09226300  0.55878300  0.29140200  1
  H  1331  1  0.09185800  0.56829900  0.26650500  1
  H  1334  1  0.07214600  0.55281400  0.23925600  1
  H  1335  1  0.05424800  0.55672700  0.21907800  1
  H  1336  1  0.09123200  0.57111500  0.21281700  1
  H  1337  1  0.07085300  0.58992500  0.21161500  1
  H  1338  1  0.08763300  0.58796000  0.23333000  1
  H  1351  1  0.47281500  0.86727900  0.77353200  1
  H  1352  1  0.47262600  0.86683600  0.73723400  1
  H  1355  1  0.55218600  0.93458800  0.71569800  1
  H  1356  1  0.55926200  0.94906600  0.73680600  1
  H  1357  1  0.58253500  0.91026200  0.72308400  1
  H  1358  1  0.59143900  0.93529200  0.71822200  1
  H  1359  1  0.59101000  0.92602700  0.74321100  1
  H  1362  1  0.57110400  0.94157300  0.77020500  1
  H  1363  1  0.55310700  0.93777200  0.79033500  1
  H  1364  1  0.59019400  0.92377100  0.79696800  1
  H  1365  1  0.56999500  0.90479900  0.79829600  1
  H  1366  1  0.58688400  0.90664500  0.77664500  1
  H  1379  1  0.51699500  0.88056300  0.23331900  1
  H  1380  1  0.52094800  0.87938700  0.26917600  1
  H  1383  1  0.42125400  0.90916100  0.30070900  1
  H  1384  1  0.40370600  0.91680100  0.28134200  1
  H  1385  1  0.39133300  0.88026000  0.27766200  1
  H  1386  1  0.40923900  0.87348400  0.29752100  1
  H  1387  1  0.38711500  0.88984500  0.30233900  1
  H  1390  1  0.40680100  0.89692700  0.22589100  1
  H  1391  1  0.39397400  0.90301800  0.24864400  1
  H  1392  1  0.42188600  0.93211000  0.22372000  1
  H  1393  1  0.39325000  0.93226700  0.22538900  1
  H  1394  1  0.40901400  0.93822200  0.24695900  1
  H  1407  1  0.01697800  0.61330600  0.77653100  1
  H  1408  1  0.02090600  0.61448700  0.74066400  1
  H  1411  1  0.92123500  0.58454100  0.70919800  1
  H  1412  1  0.90369300  0.57691600  0.72857500  1
  H  1413  1  0.89133500  0.61346300  0.73224300  1
  H  1414  1  0.90923200  0.62022300  0.71237400  1
  H  1415  1  0.88710000  0.60386500  0.70757300  1
  H  1418  1  0.90684900  0.59675000  0.78403800  1
  H  1419  1  0.89398800  0.59072200  0.76128600  1
  H  1420  1  0.92190100  0.56156500  0.78613400  1
  H  1421  1  0.89326400  0.56142300  0.78447600  1
  H  1422  1  0.90901400  0.55549600  0.76289000  1
  H  1435  1  0.76049100  0.97737000  0.62283800  1
  H  1436  1  0.76261200  0.01357700  0.62300400  1
  H  1439  1  0.69519900  0.03153500  0.70412000  1
  H  1440  1  0.67337900  0.01471900  0.70663900  1
  H  1441  1  0.65669100  0.02983100  0.67494700  1
  H  1442  1  0.67784800  0.04811200  0.67511100  1
  H  1443  1  0.65905900  0.04707200  0.69526700  1
  H  1446  1  0.67847600  0.97967000  0.70870800  1
  H  1447  1  0.68104500  0.95970100  0.69143500  1
  H  1448  1  0.64780800  0.99385800  0.68719100  1
  H  1449  1  0.64263600  0.96888200  0.69519300  1
  H  1450  1  0.65140700  0.97347100  0.67011300  1
  H  1463  1  0.26024500  0.51652400  0.38734900  1
  H  1464  1  0.26245800  0.48031900  0.38719800  1
  H  1467  1  0.19540800  0.46211700  0.30585800  1
  H  1468  1  0.17357700  0.47890400  0.30324700  1
  H  1469  1  0.15682800  0.46386500  0.33495100  1
  H  1470  1  0.17800200  0.44560300  0.33488400  1
  H  1471  1  0.15926200  0.44656800  0.31468800  1
  H  1474  1  0.17863700  0.51398200  0.30112000  1
  H  1475  1  0.18110100  0.53396600  0.31838500  1
  H  1476  1  0.14789400  0.49976200  0.32248200  1
  H  1477  1  0.14272800  0.52476700  0.31455900  1
  H  1478  1  0.15142300  0.52008400  0.33964500  1
  H  1491  1  0.71641800  0.51805700  0.63447600  1
  H  1492  1  0.71320100  0.48206900  0.63376500  1
  H  1495  1  0.80843000  0.45278200  0.67625400  1
  H  1496  1  0.82504700  0.47225000  0.68504000  1
  H  1497  1  0.84140300  0.47567900  0.65026700  1
  H  1498  1  0.82407500  0.45611700  0.64158000  1
  H  1499  1  0.84413400  0.45089700  0.66000400  1
  H  1502  1  0.82018700  0.52989500  0.66680500  1
  H  1503  1  0.83571300  0.50776300  0.66637900  1
  H  1504  1  0.80790400  0.52105200  0.70224800  1
  H  1505  1  0.83567100  0.52708800  0.69971600  1
  H  1506  1  0.82756100  0.50165800  0.70263800  1
  H  1519  1  0.21638600  0.97577100  0.37542400  1
  H  1520  1  0.21315900  0.01175800  0.37618000  1
  H  1523  1  0.30856800  0.04087300  0.33333333  1
  H  1524  1  0.32566700  0.02128800  0.32558400  1
  H  1525  1  0.34066200  0.01874900  0.36093600  1
  H  1526  1  0.32307700  0.03857900  0.36852900  1
  H  1527  1  0.34380700  0.04326600  0.35061400  1
  H  1530  1  0.32064100  0.96427100  0.34375900  1
  H  1531  1  0.33580400  0.98664000  0.34336300  1
  H  1532  1  0.30776800  0.97130900  0.30846700  1
  H  1533  1  0.33598400  0.96717500  0.31043800  1
  H  1534  1  0.32586300  0.99194900  0.30707500  1
  H  1547  1  0.01163200  0.51468500  0.87891800  1
  H  1548  1  0.01102400  0.47863700  0.88150500  1
  H  1551  1  0.92437700  0.45480300  0.82151400  1
  H  1552  1  0.91732900  0.47400500  0.80444800  1
  H  1553  1  0.89910200  0.46764900  0.84718900  1
  H  1554  1  0.88535800  0.46355200  0.82400200  1
  H  1555  1  0.89193400  0.48840100  0.83163500  1
  H  1558  1  0.92555800  0.53238400  0.81496900  1
  H  1559  1  0.90952200  0.51121400  0.80956400  1
  H  1560  1  0.95305900  0.52179600  0.78985000  1
  H  1561  1  0.92717000  0.52272000  0.77836400  1
  H  1562  1  0.93861600  0.49913000  0.78486900  1
  H  1575  1  0.51159300  0.97911500  0.13100700  1
  H  1576  1  0.51100100  0.01516500  0.12844800  1
  H  1579  1  0.42434100  0.03898500  0.18844000  1
  H  1580  1  0.41730400  0.01977200  0.20549900  1
  H  1581  1  0.39905800  0.02615900  0.16277000  1
  H  1582  1  0.38532000  0.03021900  0.18596600  1
  H  1583  1  0.39190800  0.00538400  0.17830000  1
  H  1586  1  0.42549000  0.96139600  0.19492800  1
  H  1587  1  0.40948200  0.98257600  0.20037800  1
  H  1588  1  0.45303000  0.97193500  0.22004000  1
  H  1589  1  0.42715200  0.97100000  0.23154400  1
  H  1590  1  0.43860200  0.99459800  0.22506600  1
  H  1603  1  0.26918900  0.37883000  0.27328300  1
  H  1604  1  0.26983500  0.37523000  0.23739000  1
  H  1607  1  0.16912000  0.41027400  0.21113700  1
  H  1608  1  0.15461200  0.42238500  0.23035900  1
  H  1609  1  0.15751300  0.37657600  0.22348800  1
  H  1610  1  0.13458500  0.39213800  0.21946100  1
  H  1611  1  0.14393200  0.38779900  0.24429800  1
  H  1614  1  0.16831700  0.42017000  0.28835100  1
  H  1615  1  0.15041200  0.41633400  0.26814000  1
  H  1616  1  0.18269700  0.45156500  0.27196100  1
  H  1617  1  0.15442700  0.45299200  0.27646900  1
  H  1618  1  0.16421500  0.44859800  0.25180700  1
  H  1631  1  0.76920000  0.11503100  0.73677700  1
  H  1632  1  0.76982200  0.11861000  0.77267800  1
  H  1635  1  0.66911500  0.08349500  0.79885100  1
  H  1636  1  0.65474700  0.07118600  0.77966200  1
  H  1637  1  0.65730300  0.11704600  0.78632900  1
  H  1638  1  0.63446300  0.10136300  0.79032300  1
  H  1639  1  0.64389100  0.10566700  0.76551000  1
  H  1642  1  0.66849800  0.07337200  0.72164900  1
  H  1643  1  0.65053800  0.07716900  0.74182600  1
  H  1644  1  0.68299800  0.04206800  0.73811400  1
  H  1645  1  0.65474000  0.04051900  0.73358000  1
  H  1646  1  0.66447700  0.04499900  0.75824300  1
  H  1659  1  0.46910200  0.97772400  0.87817000  1
  H  1660  1  0.46875400  0.01373300  0.88141200  1
  H  1663  1  0.55656200  0.04086400  0.82456800  1
  H  1664  1  0.56481000  0.02233200  0.80728300  1
  H  1665  1  0.58906600  0.00740600  0.83510300  1
  H  1666  1  0.58098800  0.02773100  0.85084600  1
  H  1667  1  0.59570900  0.03248000  0.82833600  1
  H  1670  1  0.55633400  0.96376000  0.81460100  1
  H  1671  1  0.57278400  0.98504800  0.81124000  1
  H  1672  1  0.53021100  0.97573700  0.78915000  1
  H  1673  1  0.55658800  0.97620300  0.77862100  1
  H  1674  1  0.54426600  0.99896700  0.78644800  1
  H  1687  1  0.96890600  0.51609100  0.13170400  1
  H  1688  1  0.96856100  0.48007000  0.12853800  1
  H  1691  1  0.05585400  0.45305600  0.18611300  1
  H  1692  1  0.06393800  0.47167400  0.20337800  1
  H  1693  1  0.08864700  0.48631300  0.17574500  1
  H  1694  1  0.08067300  0.46592700  0.16003600  1
  H  1695  1  0.09507100  0.46125300  0.18274400  1
  H  1698  1  0.05603700  0.53022200  0.19534800  1
  H  1699  1  0.07217100  0.50882300  0.19927400  1
  H  1700  1  0.02936700  0.51884300  0.22064900  1
  H  1701  1  0.05558000  0.51846000  0.23152300  1
  H  1702  1  0.04326600  0.49559800  0.22394300  1
  H  1715  1  0.21736500  0.12049800  0.27327000  1
  H  1716  1  0.21882400  0.12235500  0.23718300  1
  H  1719  1  0.30607200  0.06149500  0.21660200  1
  H  1720  1  0.31563500  0.04756500  0.23730100  1
  H  1721  1  0.33886300  0.07752800  0.24749900  1
  H  1722  1  0.32901600  0.09090100  0.22612400  1
  H  1723  1  0.34479600  0.06875700  0.22283900  1
  H  1726  1  0.30518800  0.06026200  0.29436400  1
  H  1727  1  0.32221300  0.05518400  0.27374700  1
  H  1728  1  0.27992000  0.03295700  0.28415800  1
  H  1729  1  0.30653900  0.02357000  0.28747400  1
  H  1730  1  0.29625800  0.02737800  0.26280100  1
  H  1743  1  0.71727700  0.37342600  0.73675800  1
  H  1744  1  0.71871600  0.37149700  0.77284100  1
  H  1747  1  0.80631700  0.43188300  0.79356100  1
  H  1748  1  0.81596500  0.44581000  0.77289100  1
  H  1749  1  0.83895400  0.41573700  0.76257800  1
  H  1750  1  0.82903700  0.40235900  0.78392300  1
  H  1751  1  0.84498200  0.42439200  0.78726000  1
  H  1754  1  0.80529100  0.43347100  0.71580200  1
  H  1755  1  0.82241500  0.43831800  0.73640500  1
  H  1756  1  0.78024000  0.46084800  0.72622400  1
  H  1757  1  0.80691300  0.47012100  0.72295300  1
  H  1758  1  0.79663200  0.46619000  0.74760400  1
  H  1771  1  0.72441000  0.62681300  0.73413000  1
  H  1772  1  0.72384100  0.63014400  0.77027700  1
  H  1775  1  0.78265900  0.54565800  0.79879200  1
  H  1776  1  0.79272400  0.53120000  0.77867200  1
  H  1777  1  0.82130400  0.55824600  0.77232000  1
  H  1778  1  0.81146500  0.57133200  0.79390500  1
  H  1779  1  0.82326900  0.54707000  0.79649800  1
  H  1782  1  0.78892500  0.54412900  0.72169200  1
  H  1783  1  0.80298100  0.53634800  0.74338000  1
  H  1784  1  0.75727900  0.52282500  0.73059600  1
  H  1785  1  0.78117400  0.50808400  0.72931600  1
  H  1786  1  0.77028500  0.51477600  0.75311500  1
  H  1799  1  0.22422500  0.86697800  0.27580800  1
  H  1800  1  0.22355400  0.86362500  0.23966300  1
  H  1803  1  0.28252800  0.94786600  0.21090300  1
  H  1804  1  0.29228600  0.96257400  0.23097600  1
  H  1805  1  0.32116200  0.93582600  0.23763800  1
  H  1806  1  0.31156900  0.92252200  0.21609300  1
  H  1807  1  0.32312600  0.94687700  0.21340500  1
  H  1810  1  0.28910800  0.94938100  0.28800400  1
  H  1811  1  0.30295500  0.95731400  0.26626200  1
  H  1812  1  0.25737800  0.97077500  0.27948000  1
  H  1813  1  0.28131200  0.98546800  0.28075400  1
  H  1814  1  0.27025100  0.97899700  0.25695300  1
  H  1827  1  0.77049500  0.87820600  0.73351600  1
  H  1828  1  0.77210700  0.87601700  0.76953200  1
  H  1831  1  0.67228000  0.91111300  0.79670500  1
  H  1832  1  0.65712300  0.92181000  0.77702100  1
  H  1833  1  0.64236300  0.88703200  0.76867100  1
  H  1834  1  0.65790300  0.87689500  0.78884500  1
  H  1835  1  0.63678400  0.89432100  0.79388700  1
  H  1838  1  0.66523000  0.91019400  0.71927900  1
  H  1839  1  0.64950200  0.91122900  0.74129400  1
  H  1840  1  0.68190300  0.94359100  0.72733000  1
  H  1841  1  0.65327300  0.94531800  0.72609900  1
  H  1842  1  0.66642000  0.94514900  0.74983700  1
  H  1855  1  0.27010000  0.61559500  0.27653200  1
  H  1856  1  0.27172900  0.61772900  0.24051900  1
  H  1859  1  0.17180600  0.58283700  0.21338100  1
  H  1860  1  0.15659500  0.57225000  0.23308600  1
  H  1861  1  0.14193400  0.60710100  0.24129900  1
  H  1862  1  0.15753300  0.61712200  0.22111000  1
  H  1863  1  0.13636600  0.59974100  0.21610200  1
  H  1866  1  0.16466200  0.58409500  0.29079500  1
  H  1867  1  0.14896200  0.58301800  0.26876700  1
  H  1868  1  0.18118500  0.55059000  0.28292400  1
  H  1869  1  0.15254400  0.54900100  0.28415500  1
  H  1870  1  0.16570100  0.54898600  0.26041800  1
  H  1883  1  0.51320300  0.01893700  0.38063100  1
  H  1884  1  0.51797200  0.98318800  0.38467900  1
  H  1887  1  0.44916200  0.94461400  0.31563300  1
  H  1888  1  0.43983400  0.96103700  0.29696700  1
  H  1889  1  0.40711000  0.96886100  0.31782700  1
  H  1890  1  0.41815500  0.95476300  0.33814200  1
  H  1891  1  0.41038700  0.94256600  0.31538600  1
  H  1894  1  0.43283100  0.02187000  0.30884000  1
  H  1895  1  0.41894000  0.99910000  0.30672100  1
  H  1896  1  0.45755200  0.01276000  0.28099000  1
  H  1897  1  0.43024100  0.01026900  0.27307800  1
  H  1898  1  0.44562100  0.98864500  0.27860500  1
  H  1911  1  0.01327200  0.47481000  0.62927400  1
  H  1912  1  0.01802900  0.51055900  0.62521500  1
  H  1915  1  0.94905300  0.54917300  0.69398700  1
  H  1916  1  0.93997600  0.53284700  0.71283200  1
  H  1917  1  0.90699800  0.52491200  0.69242300  1
  H  1918  1  0.91784600  0.53869800  0.67180100  1
  H  1919  1  0.91035100  0.55122300  0.69445600  1
  H  1922  1  0.93286800  0.47181500  0.70093700  1
  H  1923  1  0.91880900  0.49450000  0.70287200  1
  H  1924  1  0.95731700  0.48117500  0.72891700  1
  H  1925  1  0.92991700  0.48344200  0.73662500  1
  H  1926  1  0.94512200  0.50518800  0.73118900  1
  H  1939  1  0.96443600  0.47649900  0.37590600  1
  H  1940  1  0.96354900  0.51245200  0.37932000  1
  H  1943  1  0.05752800  0.54042600  0.33195700  1
  H  1944  1  0.07093500  0.52132600  0.31859800  1
  H  1945  1  0.08760200  0.50897900  0.35137700  1
  H  1946  1  0.07451900  0.52920400  0.36414400  1
  H  1947  1  0.09448600  0.53429500  0.34559300  1
  H  1950  1  0.05895400  0.46313400  0.32219700  1
  H  1951  1  0.07686100  0.48367800  0.32411800  1
  H  1952  1  0.04043800  0.47830100  0.29286200  1
  H  1953  1  0.06868000  0.47643500  0.28834100  1
  H  1954  1  0.05699300  0.50006600  0.29414900  1
  H  1967  1  0.46434300  0.01710100  0.63397600  1
  H  1968  1  0.46330200  0.98114700  0.63053700  1
  H  1971  1  0.55695200  0.95281600  0.67838900  1
  H  1972  1  0.57071000  0.97198300  0.69133900  1
  H  1973  1  0.58707500  0.98376400  0.65824100  1
  H  1974  1  0.57368900  0.96345400  0.64588000  1
  H  1975  1  0.59382300  0.95848100  0.66430400  1
  H  1978  1  0.55891700  0.03011700  0.68762700  1
  H  1979  1  0.57671600  0.00949500  0.68566900  1
  H  1980  1  0.54051500  0.01510000  0.71711500  1
  H  1981  1  0.56878500  0.01695900  0.72147300  1
  H  1982  1  0.55703300  0.99331100  0.71584000  1
  H  1995  1  0.88375400  0.34252600  0.91883300  1
  H  1996  1  0.84655200  0.33548000  0.91192000  1
  H  1999  1  0.83455100  0.39644300  0.82562700  1
  H  2000  1  0.84929800  0.41904800  0.82747200  1
  H  2001  1  0.82542400  0.43022000  0.85626900  1
  H  2002  1  0.80957400  0.40805800  0.85283800  1
  H  2003  1  0.81112700  0.42631300  0.83335100  1
  H  2006  1  0.90343700  0.42145400  0.85484400  1
  H  2007  1  0.88037200  0.43125900  0.84297400  1
  H  2008  1  0.90740000  0.39514300  0.82777100  1
  H  2009  1  0.90883700  0.42011300  0.81837400  1
  H  2010  1  0.88491900  0.40579000  0.81483200  1
  H  2023  1  0.38371000  0.15121500  0.09113400  1
  H  2024  1  0.34650400  0.15820600  0.09807700  1
  H  2027  1  0.33477300  0.09749700  0.18456100  1
  H  2028  1  0.34963300  0.07495000  0.18282500  1
  H  2029  1  0.32579700  0.06354100  0.15407800  1
  H  2030  1  0.30982200  0.08563300  0.15744800  1
  H  2031  1  0.31151100  0.06745700  0.17699900  1
  H  2034  1  0.40364100  0.07245300  0.15525100  1
  H  2035  1  0.38065300  0.06270800  0.16729400  1
  H  2036  1  0.40775600  0.09890700  0.18217300  1
  H  2037  1  0.40926600  0.07398200  0.19168500  1
  H  2038  1  0.38535700  0.08831200  0.19527900  1
  H  2051  1  0.13284000  0.33203000  0.10122900  1
  H  2052  1  0.09564400  0.33878400  0.09426300  1
  H  2055  1  0.08187800  0.42485700  0.15511300  1
  H  2056  1  0.09850000  0.42426800  0.17662900  1
  H  2057  1  0.07807500  0.39418700  0.18980400  1
  H  2058  1  0.06041000  0.39574100  0.16865100  1
  H  2059  1  0.06139900  0.41569500  0.18638500  1
  H  2062  1  0.15369700  0.39885500  0.17743200  1
  H  2063  1  0.13069400  0.41040100  0.18780900  1
  H  2064  1  0.15612200  0.42581400  0.15091700  1
  H  2065  1  0.15799900  0.43549600  0.17578900  1
  H  2066  1  0.13357300  0.43827900  0.16201100  1
  H  2079  1  0.63288200  0.16172200  0.90883100  1
  H  2080  1  0.59567500  0.15501800  0.91579700  1
  H  2083  1  0.58171300  0.06908900  0.85477300  1
  H  2084  1  0.59828800  0.06972200  0.83322600  1
  H  2085  1  0.57787500  0.09986200  0.82017800  1
  H  2086  1  0.56025400  0.09826800  0.84136000  1
  H  2087  1  0.56117500  0.07836600  0.82356900  1
  H  2090  1  0.65356800  0.09498300  0.83249600  1
  H  2091  1  0.63053300  0.08350300  0.82210800  1
  H  2092  1  0.65593300  0.06797800  0.85896600  1
  H  2093  1  0.65775900  0.05832300  0.83408000  1
  H  2094  1  0.63333600  0.05558800  0.84787200  1
  H  2107  1  0.09430600  0.65739800  0.10600500  1
  H  2108  1  0.13141700  0.66318300  0.11387200  1
  H  2111  1  0.15373000  0.57388000  0.16694500  1
  H  2112  1  0.13729500  0.55360500  0.15941700  1
  H  2113  1  0.17331300  0.57272800  0.13414800  1
  H  2114  1  0.17288700  0.54826300  0.14505800  1
  H  2115  1  0.15509400  0.55405400  0.12493800  1
  H  2118  1  0.08145200  0.55908100  0.13554200  1
  H  2119  1  0.10594300  0.54653900  0.14013900  1
  H  2120  1  0.07846700  0.56970400  0.17129800  1
  H  2121  1  0.08098100  0.54309800  0.16914800  1
  H  2122  1  0.10342300  0.55769900  0.17705700  1
  H  2135  1  0.59433800  0.83632900  0.90386300  1
  H  2136  1  0.63146700  0.83056300  0.89603500  1
  H  2139  1  0.65384000  0.91993400  0.84312800  1
  H  2140  1  0.63738700  0.94019900  0.85065000  1
  H  2141  1  0.67336900  0.92106200  0.87595400  1
  H  2142  1  0.67295800  0.94553700  0.86506700  1
  H  2143  1  0.65513200  0.93972500  0.88515400  1
  H  2146  1  0.58149600  0.93467400  0.87440500  1
  H  2147  1  0.60598400  0.94723200  0.86984000  1
  H  2148  1  0.57857800  0.92402800  0.83865600  1
  H  2149  1  0.58108700  0.95063600  0.84078400  1
  H  2150  1  0.60354600  0.93602700  0.83292200  1
  H  2163  1  0.84790400  0.65841700  0.90467300  1
  H  2164  1  0.88406100  0.65071500  0.91394900  1
  H  2167  1  0.89936200  0.56641700  0.85041500  1
  H  2168  1  0.88801100  0.57045900  0.82645800  1
  H  2169  1  0.91458100  0.59929900  0.82095500  1
  H  2170  1  0.92709200  0.59270900  0.84418200  1
  H  2171  1  0.92691700  0.57526800  0.82392200  1
  H  2174  1  0.85025000  0.57284900  0.82504000  1
  H  2175  1  0.83077600  0.59203400  0.82674000  1
  H  2176  1  0.87293100  0.59602700  0.80275600  1
  H  2177  1  0.84700700  0.59137500  0.79250000  1
  H  2178  1  0.85242200  0.61466500  0.80471200  1
  H  2191  1  0.34791300  0.83535400  0.10522600  1
  H  2192  1  0.38406300  0.84307100  0.09596000  1
  H  2195  1  0.39928200  0.92741200  0.15945300  1
  H  2196  1  0.38791400  0.92338400  0.18340600  1
  H  2197  1  0.41449200  0.89456400  0.18895800  1
  H  2198  1  0.42701300  0.90112300  0.16572600  1
  H  2199  1  0.42682700  0.91859300  0.18596000  1
  H  2202  1  0.35015300  0.92095000  0.18483100  1
  H  2203  1  0.33071100  0.90173400  0.18314600  1
  H  2204  1  0.37288200  0.89781500  0.20712100  1
  H  2205  1  0.34695300  0.90242700  0.21738100  1
  H  2206  1  0.35241000  0.87914200  0.20517300  1
  H  2219  1  0.38391000  0.84958300  0.41857300  1
  H  2220  1  0.34765200  0.83910100  0.41234600  1
  H  2223  1  0.32790100  0.89782100  0.32551700  1
  H  2224  1  0.33883400  0.92217100  0.32794700  1
  H  2225  1  0.31323500  0.92871700  0.35730400  1
  H  2226  1  0.30099500  0.90494500  0.35231000  1
  H  2227  1  0.30013500  0.92431200  0.33386900  1
  H  2230  1  0.37628500  0.92516100  0.32968200  1
  H  2231  1  0.39624200  0.92494700  0.34853900  1
  H  2232  1  0.35285100  0.94674700  0.35379000  1
  H  2233  1  0.37724300  0.95853100  0.34642900  1
  H  2234  1  0.37510300  0.94724700  0.37062800  1
  H  2247  1  0.88391600  0.64420000  0.59124500  1
  H  2248  1  0.84767700  0.65471200  0.59749800  1
  H  2251  1  0.82797700  0.59608000  0.68438800  1
  H  2252  1  0.83884000  0.57170600  0.68194600  1
  H  2253  1  0.81317900  0.56523300  0.65260700  1
  H  2254  1  0.80100900  0.58902900  0.65763600  1
  H  2255  1  0.80012900  0.56965000  0.67606500  1
  H  2258  1  0.87630400  0.56864000  0.68015200  1
  H  2259  1  0.89619900  0.56876100  0.66123700  1
  H  2260  1  0.85270400  0.54708300  0.65616900  1
  H  2261  1  0.87710600  0.53524900  0.66341900  1
  H  2262  1  0.87486500  0.54652700  0.63922700  1
  H  2275  1  0.63497800  0.83865200  0.59741200  1
  H  2276  1  0.59792900  0.84557800  0.59001700  1
  H  2279  1  0.57901500  0.92117500  0.66170800  1
  H  2280  1  0.59342700  0.91730600  0.68423200  1
  H  2281  1  0.57177500  0.88590400  0.69107400  1
  H  2282  1  0.55662200  0.89037600  0.66868200  1
  H  2283  1  0.55527800  0.90773100  0.68892200  1
  H  2286  1  0.64981900  0.89349400  0.68424700  1
  H  2287  1  0.62561300  0.90165700  0.69543200  1
  H  2288  1  0.65164700  0.92461900  0.66298200  1
  H  2289  1  0.65119500  0.93023800  0.68910700  1
  H  2290  1  0.62756700  0.93374500  0.67443400  1
  H  2303  1  0.13464700  0.65553300  0.41226200  1
  H  2304  1  0.09760200  0.64849900  0.41956300  1
  H  2307  1  0.07979000  0.57174800  0.34874800  1
  H  2308  1  0.09416900  0.57555700  0.32619300  1
  H  2309  1  0.07210000  0.60664100  0.31903000  1
  H  2310  1  0.05699000  0.60221300  0.34145300  1
  H  2311  1  0.05589500  0.58464200  0.32139400  1
  H  2314  1  0.15024900  0.60000100  0.32605700  1
  H  2315  1  0.12619400  0.59138100  0.31493500  1
  H  2316  1  0.15250400  0.56913600  0.34768900  1
  H  2317  1  0.15225000  0.56326000  0.32161700  1
  H  2318  1  0.12861500  0.55955700  0.33624900  1
  H  2331  1  0.59258000  0.15978000  0.60745100  1
  H  2332  1  0.62990100  0.16536700  0.61507500  1
  H  2335  1  0.65636200  0.07253400  0.65653300  1
  H  2336  1  0.63835000  0.05285900  0.65074100  1
  H  2337  1  0.67178400  0.07086100  0.62168400  1
  H  2338  1  0.67265700  0.04674400  0.63334500  1
  H  2339  1  0.65253000  0.05200200  0.61503400  1
  H  2342  1  0.58326700  0.05807800  0.62514100  1
  H  2343  1  0.60782400  0.04589200  0.63029100  1
  H  2344  1  0.57802700  0.06654200  0.66135200  1
  H  2345  1  0.58141400  0.04018200  0.65773600  1
  H  2346  1  0.60300800  0.05478400  0.66756200  1
  H  2359  1  0.09253400  0.33400900  0.40240800  1
  H  2360  1  0.12987000  0.32845000  0.39482700  1
  H  2363  1  0.15638100  0.42128600  0.35353200  1
  H  2364  1  0.13827300  0.44093300  0.35915200  1
  H  2365  1  0.17163200  0.42317300  0.38844200  1
  H  2366  1  0.17252000  0.44721800  0.37663400  1
  H  2367  1  0.15231900  0.44204400  0.39489800  1
  H  2370  1  0.08332700  0.43579600  0.38506900  1
  H  2371  1  0.10785400  0.44795700  0.37974600  1
  H  2372  1  0.07782500  0.42731100  0.34887900  1
  H  2373  1  0.08122200  0.45367100  0.35248900  1
  H  2374  1  0.10275800  0.43908300  0.34252400  1
  H  2387  1  0.34214000  0.14444100  0.41696400  1
  H  2388  1  0.37951600  0.13724800  0.42262800  1
  H  2391  1  0.40452200  0.09152800  0.33032200  1
  H  2392  1  0.38817700  0.10011700  0.31035200  1
  H  2393  1  0.42308100  0.12479700  0.33185900  1
  H  2394  1  0.42328800  0.11587500  0.30661100  1
  H  2395  1  0.40476900  0.13496700  0.31377800  1
  H  2398  1  0.33078200  0.11965000  0.31716300  1
  H  2399  1  0.35553500  0.11757200  0.30440800  1
  H  2400  1  0.33039700  0.08328800  0.32538900  1
  H  2401  1  0.33341500  0.08707700  0.29901200  1
  H  2402  1  0.35599800  0.07982000  0.31374300  1
  H  2415  1  0.84214100  0.34935700  0.59298300  1
  H  2416  1  0.87952400  0.35651900  0.58732600  1
  H  2419  1  0.90456200  0.40216600  0.67964800  1
  H  2420  1  0.88821400  0.39358400  0.69961900  1
  H  2421  1  0.92311800  0.36889500  0.67812300  1
  H  2422  1  0.92332500  0.37783100  0.70336600  1
  H  2423  1  0.90480600  0.35873400  0.69621000  1
  H  2426  1  0.83081900  0.37406000  0.69280900  1
  H  2427  1  0.85557200  0.37613400  0.70556400  1
  H  2428  1  0.83043900  0.41042600  0.68458900  1
  H  2429  1  0.83345000  0.40662800  0.71096400  1
  H  2430  1  0.85603900  0.41388700  0.69624000  1
  H  2443  1  0.96329000  0.35652800  0.99091900  1
  H  2444  1  0.96880500  0.35614600  0.02664500  1
  H  2447  1  0.04171400  0.43694900  0.03457700  1
  H  2448  1  0.05765100  0.43957900  0.01281100  1
  H  2449  1  0.06020900  0.40427800  0.04258400  1
  H  2450  1  0.07936100  0.42391200  0.03932600  1
  H  2451  1  0.07527000  0.40601500  0.01975600  1
  H  2454  1  0.04038700  0.42294200  0.96008100  1
  H  2455  1  0.05934300  0.42883800  0.97885900  1
  H  2456  1  0.03586700  0.45893900  0.98897200  1
  H  2457  1  0.01731800  0.45214800  0.96965400  1
  H  2458  1  0.04392100  0.45990900  0.96331600  1
  H  2471  1  0.46324200  0.13723600  0.01904400  1
  H  2472  1  0.46874400  0.13763700  0.98331700  1
  H  2475  1  0.54171400  0.05688700  0.97534300  1
  H  2476  1  0.55768100  0.05427500  0.99709300  1
  H  2477  1  0.56017800  0.08956300  0.96729800  1
  H  2478  1  0.57934800  0.06994100  0.97054700  1
  H  2479  1  0.57526900  0.08784600  0.99011200  1
  H  2482  1  0.54043100  0.07089400  0.04983200  1
  H  2483  1  0.55938000  0.06501000  0.03104400  1
  H  2484  1  0.53592400  0.03489400  0.02094200  1
  H  2485  1  0.51737900  0.04167100  0.04027000  1
  H  2486  1  0.54399200  0.03392800  0.04659300  1
  H  2499  1  0.21253900  0.25915900  0.11517800  1
  H  2500  1  0.21837500  0.22345100  0.11502200  1
  H  2503  1  0.29230400  0.21660000  0.19498500  1
  H  2504  1  0.30783300  0.23863100  0.19761000  1
  H  2505  1  0.31078700  0.20900100  0.16221500  1
  H  2506  1  0.32995800  0.21247700  0.18178600  1
  H  2507  1  0.32544900  0.23206500  0.16399400  1
  H  2510  1  0.29013500  0.29113300  0.18051600  1
  H  2511  1  0.30924400  0.27251000  0.18650400  1
  H  2512  1  0.28605000  0.26261200  0.21684600  1
  H  2513  1  0.26734000  0.28177700  0.20996700  1
  H  2514  1  0.29396600  0.28833100  0.21747700  1
  H  2527  1  0.71252000  0.23455000  0.89487200  1
  H  2528  1  0.71833900  0.27026000  0.89504100  1
  H  2531  1  0.79222400  0.27716700  0.81505100  1
  H  2532  1  0.80777100  0.25514800  0.81241400  1
  H  2533  1  0.81073300  0.28478400  0.84780400  1
  H  2534  1  0.82988900  0.28132200  0.82821800  1
  H  2535  1  0.82541400  0.26173200  0.84601500  1
  H  2538  1  0.79012100  0.20263400  0.82951300  1
  H  2539  1  0.80921300  0.22126900  0.82351300  1
  H  2540  1  0.78598900  0.23115400  0.79318800  1
  H  2541  1  0.76730000  0.21197700  0.80007600  1
  H  2542  1  0.79392200  0.20544000  0.79254800  1
  H  2555  1  0.01756100  0.63951800  0.01945700  1
  H  2556  1  0.01212700  0.64002600  0.98370800  1
  H  2559  1  0.94043800  0.55842500  0.97511000  1
  H  2560  1  0.92461500  0.55524100  0.99687100  1
  H  2561  1  0.92116400  0.59078400  0.96747300  1
  H  2562  1  0.90248300  0.57073400  0.97055700  1
  H  2563  1  0.90619500  0.58850700  0.99030400  1
  H  2566  1  0.94113500  0.57213100  0.04973400  1
  H  2567  1  0.92244500  0.56590000  0.03083400  1
  H  2568  1  0.94661000  0.53623800  0.02085400  1
  H  2569  1  0.96487500  0.54334600  0.04029600  1
  H  2570  1  0.93839000  0.53510300  0.04645700  1
  H  2583  1  0.51770800  0.85429800  0.99042800  1
  H  2584  1  0.51226400  0.85375300  0.02617500  1
  H  2587  1  0.44045600  0.93524500  0.03482100  1
  H  2588  1  0.42461400  0.93841600  0.01307100  1
  H  2589  1  0.42122400  0.90286700  0.04246900  1
  H  2590  1  0.40251900  0.92290000  0.03939900  1
  H  2591  1  0.40623400  0.90513000  0.01964900  1
  H  2594  1  0.44115300  0.92158300  0.96019600  1
  H  2595  1  0.42245800  0.92778700  0.97910200  1
  H  2596  1  0.44659700  0.95745900  0.98910100  1
  H  2597  1  0.46486700  0.95038000  0.96965100  1
  H  2598  1  0.43837500  0.95860700  0.96349900  1
  H  2611  1  0.76965500  0.73463100  0.89086000  1
  H  2612  1  0.76348200  0.77029100  0.89173700  1
  H  2615  1  0.68664600  0.77846500  0.81502500  1
  H  2616  1  0.67275900  0.75585200  0.81035500  1
  H  2617  1  0.66730800  0.78209000  0.84813500  1
  H  2618  1  0.64872000  0.77946700  0.82794800  1
  H  2619  1  0.65408100  0.75859100  0.84398100  1
  H  2622  1  0.68957800  0.70308500  0.82791300  1
  H  2623  1  0.67076000  0.72190900  0.82176000  1
  H  2624  1  0.69391500  0.73111100  0.79121700  1
  H  2625  1  0.71233200  0.71172500  0.79818300  1
  H  2626  1  0.68553900  0.70550800  0.79090900  1
  H  2639  1  0.26963300  0.75909200  0.11906500  1
  H  2640  1  0.26345400  0.72343200  0.11819400  1
  H  2643  1  0.18663400  0.71530200  0.19493100  1
  H  2644  1  0.17270600  0.73790500  0.19954900  1
  H  2645  1  0.16730700  0.71157400  0.16183000  1
  H  2646  1  0.14870900  0.71422300  0.18200600  1
  H  2647  1  0.15404500  0.73506700  0.16592200  1
  H  2650  1  0.18954900  0.79065700  0.18199300  1
  H  2651  1  0.17072400  0.77183900  0.18814600  1
  H  2652  1  0.19387500  0.76263600  0.21869200  1
  H  2653  1  0.21229800  0.78201600  0.21172500  1
  H  2654  1  0.18550600  0.78824100  0.21899700  1
  H  2667  1  0.46110300  0.86046200  0.49093300  1
  H  2668  1  0.46713200  0.85953600  0.52658500  1
  H  2671  1  0.54354700  0.93697000  0.53483900  1
  H  2672  1  0.55821500  0.94078400  0.51250000  1
  H  2673  1  0.56225500  0.90377100  0.54000000  1
  H  2674  1  0.58127000  0.92358500  0.53712400  1
  H  2675  1  0.57615100  0.90692900  0.51669000  1
  H  2678  1  0.54090500  0.92393600  0.45976300  1
  H  2679  1  0.55988900  0.92973300  0.47854500  1
  H  2680  1  0.53699100  0.96033000  0.48823900  1
  H  2681  1  0.51840500  0.95368700  0.46889300  1
  H  2682  1  0.54520300  0.96089300  0.46261100  1
  H  2695  1  0.96103500  0.63319300  0.51883600  1
  H  2696  1  0.96702800  0.63412800  0.48317800  1
  H  2699  1  0.04363400  0.55690500  0.47484500  1
  H  2700  1  0.05831400  0.55307700  0.49717400  1
  H  2701  1  0.06230500  0.59013400  0.46972400  1
  H  2702  1  0.08133700  0.57032800  0.47255300  1
  H  2703  1  0.07622300  0.58694500  0.49301800  1
  H  2706  1  0.04106800  0.56992500  0.54993300  1
  H  2707  1  0.06002500  0.56413800  0.53112400  1
  H  2708  1  0.03715100  0.53351100  0.52148200  1
  H  2709  1  0.01859300  0.54013900  0.54085500  1
  H  2710  1  0.04541200  0.53296900  0.54709600  1
  H  2723  1  0.71361100  0.76201900  0.60978600  1
  H  2724  1  0.71909400  0.72626100  0.60910300  1
  H  2727  1  0.78946600  0.71726900  0.69172200  1
  H  2728  1  0.80551600  0.73890200  0.69491100  1
  H  2729  1  0.80888600  0.70928500  0.65955200  1
  H  2730  1  0.82746000  0.71230100  0.67969000  1
  H  2731  1  0.82408400  0.73200200  0.66180500  1
  H  2734  1  0.78888600  0.79190300  0.67849500  1
  H  2735  1  0.80761400  0.77300500  0.68467000  1
  H  2736  1  0.78317300  0.76254100  0.71395300  1
  H  2737  1  0.76487500  0.78198500  0.70690100  1
  H  2738  1  0.79122500  0.78818500  0.71547600  1
  H  2751  1  0.21354300  0.73185500  0.40022200  1
  H  2752  1  0.21902600  0.76761300  0.40088200  1
  H  2755  1  0.28938200  0.77654000  0.31824200  1
  H  2756  1  0.30544200  0.75491000  0.31507700  1
  H  2757  1  0.30881200  0.78457900  0.35039200  1
  H  2758  1  0.32738100  0.78154000  0.33025400  1
  H  2759  1  0.32401800  0.76186300  0.34817100  1
  H  2762  1  0.28882200  0.70192400  0.33154500  1
  H  2763  1  0.30754800  0.72081800  0.32534600  1
  H  2764  1  0.28309800  0.73125000  0.29605900  1
  H  2765  1  0.26480200  0.71181300  0.30313600  1
  H  2766  1  0.29115100  0.70560600  0.29455900  1
  H  2779  1  0.51555800  0.14063000  0.51885700  1
  H  2780  1  0.50998900  0.14089100  0.48311900  1
  H  2783  1  0.43952200  0.05867200  0.47471800  1
  H  2784  1  0.42472400  0.05426300  0.49687400  1
  H  2785  1  0.41861800  0.09054900  0.46876300  1
  H  2786  1  0.40097000  0.06967500  0.47168800  1
  H  2787  1  0.40457000  0.08691500  0.49192000  1
  H  2790  1  0.44017200  0.07246400  0.54964900  1
  H  2791  1  0.42186200  0.06539200  0.53072000  1
  H  2792  1  0.44701700  0.03624300  0.52143800  1
  H  2793  1  0.46486400  0.04414800  0.54091400  1
  H  2794  1  0.43857800  0.03531100  0.54699000  1
  H  2807  1  0.01558400  0.35309600  0.49108000  1
  H  2808  1  0.01004100  0.35283200  0.52682000  1
  H  2811  1  0.93951200  0.43499500  0.53525800  1
  H  2812  1  0.92467700  0.43938100  0.51312000  1
  H  2813  1  0.91863600  0.40311200  0.54126400  1
  H  2814  1  0.90097000  0.42397400  0.53834700  1
  H  2815  1  0.90455100  0.40672100  0.51812400  1
  H  2818  1  0.94009900  0.42119400  0.46033600  1
  H  2819  1  0.92179700  0.42824900  0.47927700  1
  H  2820  1  0.94693400  0.45741800  0.48854600  1
  H  2821  1  0.96477300  0.44952800  0.46905600  1
  H  2822  1  0.93847400  0.45834600  0.46300000  1
  H  2835  1  0.26546100  0.23248900  0.39864100  1
  H  2836  1  0.26011600  0.26827900  0.39894300  1
  H  2839  1  0.18999300  0.27709000  0.31645800  1
  H  2840  1  0.17482600  0.25509500  0.31225800  1
  H  2841  1  0.16926600  0.28360800  0.34828900  1
  H  2842  1  0.15150300  0.28070500  0.32750900  1
  H  2843  1  0.15487200  0.26058000  0.34491800  1
  H  2846  1  0.19009300  0.20218800  0.33023200  1
  H  2847  1  0.17184300  0.22121500  0.32326100  1
  H  2848  1  0.19701700  0.23055400  0.29415400  1
  H  2849  1  0.21479800  0.21098000  0.30196500  1
  H  2850  1  0.18848600  0.20502000  0.29311700  1
  H  2863  1  0.76551700  0.26136800  0.61139200  1
  H  2864  1  0.76018000  0.22557800  0.61107600  1
  H  2867  1  0.68999900  0.21673900  0.69350800  1
  H  2868  1  0.67481800  0.23872600  0.69770300  1
  H  2869  1  0.66928500  0.21020600  0.66167500  1
  H  2870  1  0.65151400  0.21310200  0.68244900  1
  H  2871  1  0.65487600  0.23322600  0.66503700  1
  H  2874  1  0.69006200  0.29163600  0.67972800  1
  H  2875  1  0.67182000  0.27260100  0.68669200  1
  H  2876  1  0.69698200  0.26328400  0.71581700  1
  H  2877  1  0.71475400  0.28287000  0.70801300  1
  H  2878  1  0.68843000  0.28881500  0.71684200  1
  C  1  1  0.98254700  0.38973600  0.87047800  1
  C  2  1  0.98204400  0.41097400  0.86843300  1
  C  3  1  0.98726400  0.42089300  0.85020800  1
  C  4  1  0.99389700  0.40927700  0.83315500  1
  C  5  1  0.99028500  0.38788100  0.83314400  1
  C  6  1  0.98542700  0.37811600  0.85218800  1
  C  9  1  0.97549600  0.38220900  0.89023300  1
  C  10  1  0.98540400  0.38684600  0.90944100  1
  C  11  1  0.97428000  0.38311000  0.92838200  1
  C  12  1  0.95264500  0.37515900  0.92766000  1
  C  13  1  0.94397600  0.36879200  0.90873900  1
  C  14  1  0.95506800  0.37281400  0.89059700  1
  C  27  1  0.92386100  0.35983500  0.90698600  1
  C  28  1  0.98340200  0.38875500  0.94741600  1
  C  29  1  0.99244400  0.37728900  0.81446600  1
  C  30  1  0.98402700  0.44167000  0.84853700  1
  C  35  1  0.48260900  0.10406200  0.13946400  1
  C  36  1  0.48205200  0.08282100  0.14152100  1
  C  37  1  0.48725200  0.07290400  0.15975200  1
  C  38  1  0.49387900  0.08452600  0.17680500  1
  C  39  1  0.49025900  0.10592000  0.17681100  1
  C  40  1  0.48541400  0.11568000  0.15776100  1
  C  43  1  0.47547700  0.11153000  0.11970900  1
  C  44  1  0.48542700  0.10694300  0.10050800  1
  C  45  1  0.47430000  0.11067000  0.08156700  1
  C  46  1  0.45265600  0.11860600  0.08228100  1
  C  47  1  0.44398300  0.12497800  0.10120200  1
  C  48  1  0.45507300  0.12096900  0.11934700  1
  C  61  1  0.42387800  0.13395600  0.10294400  1
  C  62  1  0.48343300  0.10504000  0.06253600  1
  C  63  1  0.49240900  0.11651400  0.19548700  1
  C  64  1  0.48399600  0.05213200  0.16143100  1
  C  69  1  0.23222400  0.37978600  0.14809100  1
  C  70  1  0.23280000  0.38138200  0.16934800  1
  C  71  1  0.23836700  0.39944900  0.17936300  1
  C  72  1  0.24384000  0.41695100  0.16791200  1
  C  73  1  0.23932600  0.41727500  0.14668000  1
  C  74  1  0.23435400  0.39833600  0.13673900  1
  C  77  1  0.22485800  0.36011900  0.14057900  1
  C  78  1  0.23484100  0.34086000  0.14487900  1
  C  79  1  0.22352900  0.32198300  0.14134100  1
  C  80  1  0.20180500  0.32277800  0.13363000  1
  C  81  1  0.19310400  0.34176000  0.12743500  1
  C  82  1  0.20427100  0.35986200  0.13149200  1
  C  95  1  0.17301200  0.34353500  0.11841300  1
  C  96  1  0.23263200  0.30295900  0.14699300  1
  C  97  1  0.24073500  0.43614700  0.13634600  1
  C  98  1  0.23595500  0.40055100  0.20020300  1
  C  103  1  0.73215900  0.11394300  0.86193900  1
  C  104  1  0.73278700  0.11236200  0.84068700  1
  C  105  1  0.73836700  0.09429600  0.83068100  1
  C  106  1  0.74387700  0.07680300  0.84213300  1
  C  107  1  0.73938800  0.07648600  0.86337300  1
  C  108  1  0.73440600  0.09542100  0.87331500  1
  C  111  1  0.72488400  0.13361700  0.86950600  1
  C  112  1  0.73484300  0.15287200  0.86515600  1
  C  113  1  0.72353400  0.17174900  0.86869500  1
  C  114  1  0.70181000  0.17095400  0.87641000  1
  C  115  1  0.69310700  0.15197400  0.88260800  1
  C  116  1  0.70428200  0.13387100  0.87856600  1
  C  129  1  0.67301300  0.15019700  0.89162200  1
  C  130  1  0.73262800  0.19077100  0.86303900  1
  C  131  1  0.74081900  0.05762200  0.87371900  1
  C  132  1  0.73597800  0.09319100  0.80983800  1
  C  137  1  0.49775900  0.10364700  0.86986100  1
  C  138  1  0.49812400  0.08237300  0.86818500  1
  C  139  1  0.49249500  0.07214700  0.85023600  1
  C  140  1  0.48609900  0.08349200  0.83291300  1
  C  141  1  0.48996200  0.10483600  0.83249400  1
  C  142  1  0.49474700  0.11494000  0.85137300  1
  C  145  1  0.50492600  0.11162400  0.88942800  1
  C  146  1  0.49574100  0.10685200  0.90892300  1
  C  147  1  0.50672300  0.11209600  0.92754200  1
  C  148  1  0.52734600  0.12204800  0.92643800  1
  C  149  1  0.53575900  0.12748200  0.90712700  1
  C  150  1  0.52489700  0.12186900  0.88928000  1
  C  163  1  0.55552100  0.13698700  0.90476500  1
  C  164  1  0.49919800  0.10531600  0.94671600  1
  C  165  1  0.48794000  0.11507800  0.81361800  1
  C  166  1  0.49536800  0.05129400  0.84901000  1
  C  171  1  0.99761300  0.39018500  0.14007700  1
  C  172  1  0.99793500  0.41145800  0.14180100  1
  C  173  1  0.99225000  0.42163500  0.15976600  1
  C  174  1  0.98587500  0.41023100  0.17705700  1
  C  175  1  0.98982900  0.38890100  0.17744100  1
  C  176  1  0.99467200  0.37885100  0.15854800  1
  C  179  1  0.00493000  0.38230800  0.12051500  1
  C  180  1  0.99570500  0.38699800  0.10101700  1
  C  181  1  0.00671700  0.38176500  0.08240900  1
  C  182  1  0.02736600  0.37186000  0.08352800  1
  C  183  1  0.03578800  0.36647100  0.10285100  1
  C  184  1  0.02490500  0.37207600  0.12069000  1
  C  197  1  0.05553000  0.35692900  0.10522600  1
  C  198  1  0.99918700  0.38851100  0.06322500  1
  C  199  1  0.98782000  0.37861500  0.19629200  1
  C  200  1  0.99506500  0.44249300  0.16105000  1
  C  205  1  0.24932500  0.11052200  0.14914900  1
  C  206  1  0.25022000  0.10880500  0.17039600  1
  C  207  1  0.24521600  0.09070100  0.18063800  1
  C  208  1  0.23895300  0.07326700  0.16941600  1
  C  209  1  0.24221800  0.07303700  0.14800400  1
  C  210  1  0.24641700  0.09201700  0.13786500  1
  C  213  1  0.25612100  0.13017900  0.14112400  1
  C  214  1  0.24663900  0.14954500  0.14593200  1
  C  215  1  0.25728900  0.16830800  0.14057700  1
  C  216  1  0.27784800  0.16749000  0.13049400  1
  C  217  1  0.28648900  0.14828400  0.12499300  1
  C  218  1  0.27594400  0.13027800  0.13065200  1
  C  231  1  0.30630100  0.14615900  0.11556500  1
  C  232  1  0.24948800  0.18739000  0.14731800  1
  C  233  1  0.23992100  0.05424200  0.13774800  1
  C  234  1  0.24839100  0.08953400  0.20140300  1
  C  239  1  0.74941400  0.38321900  0.86091100  1
  C  240  1  0.75024900  0.38491600  0.83966600  1
  C  241  1  0.74523900  0.40302200  0.82942900  1
  C  242  1  0.73896600  0.42045300  0.84065100  1
  C  243  1  0.74222100  0.42068100  0.86206700  1
  C  244  1  0.74641700  0.40170300  0.87220900  1
  C  247  1  0.75610100  0.36354900  0.86898800  1
  C  248  1  0.74663400  0.34419100  0.86413000  1
  C  249  1  0.75726300  0.32542100  0.86949100  1
  C  250  1  0.77781800  0.32622100  0.87958300  1
  C  251  1  0.78646900  0.34542000  0.88509900  1
  C  252  1  0.77593300  0.36343400  0.87944700  1
  C  265  1  0.80629000  0.34753100  0.89451700  1
  C  266  1  0.74946500  0.30634300  0.86273700  1
  C  267  1  0.73992300  0.43947400  0.87233000  1
  C  268  1  0.74838200  0.40418400  0.80865900  1
  C  273  1  0.99679400  0.60289300  0.13928900  1
  C  274  1  0.99275400  0.58192500  0.13903300  1
  C  275  1  0.98682900  0.57105400  0.15642700  1
  C  276  1  0.98547200  0.58080600  0.17557600  1
  C  277  1  0.99140200  0.60175000  0.17712200  1
  C  278  1  0.99627600  0.61280400  0.15875700  1
  C  281  1  0.00446600  0.61124400  0.12001500  1
  C  282  1  0.99448400  0.60834400  0.10048200  1
  C  283  1  0.00623300  0.61191800  0.08185800  1
  C  284  1  0.02820500  0.61890500  0.08312400  1
  C  285  1  0.03688800  0.62408700  0.10240000  1
  C  286  1  0.02546200  0.61949200  0.12022300  1
  C  299  1  0.05703400  0.63289100  0.10467400  1
  C  300  1  0.99727000  0.60677900  0.06264800  1
  C  301  1  0.99027400  0.61134500  0.19639500  1
  C  302  1  0.98160200  0.55097800  0.15345600  1
  C  307  1  0.49678200  0.89093600  0.87058600  1
  C  308  1  0.49288700  0.91192900  0.87082200  1
  C  309  1  0.48696400  0.92281100  0.85343200  1
  C  310  1  0.48545800  0.91303500  0.83430500  1
  C  311  1  0.49130200  0.89207000  0.83275400  1
  C  312  1  0.49621300  0.88102300  0.85112100  1
  C  315  1  0.50453200  0.88262900  0.88985800  1
  C  316  1  0.49454100  0.88549400  0.90939300  1
  C  317  1  0.50629400  0.88188200  0.92801100  1
  C  318  1  0.52825400  0.87486300  0.92672900  1
  C  319  1  0.53691600  0.86967900  0.90744400  1
  C  320  1  0.52548600  0.87429600  0.88962600  1
  C  333  1  0.55703900  0.86083100  0.90515000  1
  C  334  1  0.49734300  0.88701000  0.94723600  1
  C  335  1  0.49005100  0.88245300  0.81348700  1
  C  336  1  0.48181900  0.94290600  0.85640100  1
  C  341  1  0.74773200  0.61392900  0.85889800  1
  C  342  1  0.74254700  0.61225700  0.83820200  1
  C  343  1  0.73504500  0.59417400  0.82923200  1
  C  344  1  0.73208900  0.57677400  0.84173100  1
  C  345  1  0.74202400  0.57626600  0.86127500  1
  C  346  1  0.74864600  0.59525600  0.87016000  1
  C  349  1  0.75636900  0.63368200  0.86499000  1
  C  350  1  0.74596400  0.65301200  0.86195800  1
  C  351  1  0.75773300  0.67186000  0.86413300  1
  C  352  1  0.78020300  0.67101500  0.86962400  1
  C  353  1  0.78954800  0.65199000  0.87473300  1
  C  354  1  0.77802600  0.63391700  0.87158800  1
  C  367  1  0.80974400  0.65038100  0.88357200  1
  C  368  1  0.74809700  0.69090700  0.85939000  1
  C  369  1  0.74996600  0.55738000  0.86887000  1
  C  370  1  0.73306400  0.59314700  0.80813600  1
  C  375  1  0.24778000  0.87979800  0.15101100  1
  C  376  1  0.24249800  0.88146300  0.17168100  1
  C  377  1  0.23493900  0.89954600  0.18060500  1
  C  378  1  0.23194100  0.91691300  0.16807100  1
  C  379  1  0.24193800  0.91742700  0.14855500  1
  C  380  1  0.24860300  0.89843800  0.13969000  1
  C  383  1  0.25635000  0.86003700  0.14486600  1
  C  384  1  0.24595300  0.84071100  0.14793700  1
  C  385  1  0.25771700  0.82186100  0.14577300  1
  C  386  1  0.28018900  0.82269900  0.14028900  1
  C  387  1  0.28954500  0.84171900  0.13517500  1
  C  388  1  0.27802000  0.85979500  0.13830000  1
  C  401  1  0.30974900  0.84332100  0.12635100  1
  C  402  1  0.24808000  0.80281900  0.15052800  1
  C  403  1  0.24986200  0.93632300  0.14096400  1
  C  404  1  0.23294300  0.90063600  0.20169100  1
  C  409  1  0.48472000  0.89136800  0.13925100  1
  C  410  1  0.48867000  0.91232500  0.13851100  1
  C  411  1  0.49467100  0.92356100  0.15563200  1
  C  412  1  0.49575400  0.91438500  0.17506700  1
  C  413  1  0.48989800  0.89348000  0.17706900  1
  C  414  1  0.48527400  0.88193000  0.15895900  1
  C  417  1  0.47712300  0.88248400  0.12019200  1
  C  418  1  0.48673700  0.88528400  0.10047700  1
  C  419  1  0.47508600  0.88046200  0.08212000  1
  C  420  1  0.45372700  0.87206800  0.08366400  1
  C  421  1  0.44497000  0.86818200  0.10320700  1
  C  422  1  0.45627000  0.87393800  0.12076900  1
  C  435  1  0.42482000  0.85958000  0.10604600  1
  C  436  1  0.48279200  0.88659000  0.06281100  1
  C  437  1  0.49171600  0.88429700  0.19644100  1
  C  438  1  0.49980900  0.94353200  0.15219400  1
  C  443  1  0.98476700  0.60242200  0.87064400  1
  C  444  1  0.98869500  0.58145700  0.87137400  1
  C  445  1  0.99470300  0.57022700  0.85425200  1
  C  446  1  0.99576600  0.57940200  0.83481500  1
  C  447  1  0.98987500  0.60029900  0.83281300  1
  C  448  1  0.98526000  0.61184700  0.85092800  1
  C  451  1  0.97708700  0.61124100  0.88970900  1
  C  452  1  0.98673200  0.60847400  0.90941600  1
  C  453  1  0.97507200  0.61328100  0.92777200  1
  C  454  1  0.95371200  0.62167600  0.92623400  1
  C  455  1  0.94497300  0.62559700  0.90669100  1
  C  456  1  0.95627100  0.61985500  0.88912400  1
  C  469  1  0.92483400  0.63422000  0.90385800  1
  C  470  1  0.98277200  0.60714900  0.94708200  1
  C  471  1  0.99170100  0.60947900  0.81343600  1
  C  472  1  0.99984900  0.55025700  0.85769000  1
  C  477  1  0.73276100  0.88356200  0.85879600  1
  C  478  1  0.73516300  0.88417000  0.83760500  1
  C  479  1  0.73987100  0.90207100  0.82690500  1
  C  480  1  0.74226800  0.92071100  0.83750500  1
  C  481  1  0.73664500  0.92158300  0.85847700  1
  C  482  1  0.73248600  0.90285400  0.86907800  1
  C  485  1  0.72538100  0.86397400  0.86672700  1
  C  486  1  0.73529800  0.84453500  0.86295300  1
  C  487  1  0.72408300  0.82577000  0.86720800  1
  C  488  1  0.70266600  0.82664100  0.87558300  1
  C  489  1  0.69351800  0.84587300  0.88026800  1
  C  490  1  0.70455700  0.86384600  0.87536300  1
  C  503  1  0.67315400  0.84796200  0.88871100  1
  C  504  1  0.73227900  0.80671700  0.86068800  1
  C  505  1  0.72933400  0.94053100  0.86609100  1
  C  506  1  0.73789400  0.90184900  0.80595700  1
  C  511  1  0.23252200  0.61017800  0.15125400  1
  C  512  1  0.23487400  0.60960800  0.17244400  1
  C  513  1  0.23950700  0.59171100  0.18316900  1
  C  514  1  0.24198200  0.57306200  0.17259900  1
  C  515  1  0.23650100  0.57217800  0.15159300  1
  C  516  1  0.23239200  0.59089300  0.14094900  1
  C  519  1  0.22529900  0.62976200  0.14319500  1
  C  520  1  0.23519400  0.64919600  0.14703300  1
  C  521  1  0.22401000  0.66796400  0.14273000  1
  C  522  1  0.20261000  0.66710400  0.13431600  1
  C  523  1  0.19345700  0.64787300  0.12962900  1
  C  524  1  0.20448300  0.62989700  0.13454100  1
  C  537  1  0.17308500  0.64578500  0.12120600  1
  C  538  1  0.23219200  0.68701800  0.14926200  1
  C  539  1  0.22921900  0.55322700  0.14397300  1
  C  540  1  0.23745300  0.59194400  0.20410800  1
  C  545  1  0.48505800  0.89284100  0.37080800  1
  C  546  1  0.49194500  0.91314500  0.36958400  1
  C  547  1  0.50105000  0.92163800  0.35193600  1
  C  548  1  0.50343800  0.90917300  0.33447600  1
  C  549  1  0.49162700  0.89060100  0.33326700  1
  C  550  1  0.48400300  0.88183500  0.35199100  1
  C  553  1  0.47562900  0.88692400  0.39027500  1
  C  554  1  0.48571700  0.88943700  0.40980900  1
  C  555  1  0.47345300  0.88750800  0.42837400  1
  C  556  1  0.45091600  0.88235800  0.42710600  1
  C  557  1  0.44182500  0.87776200  0.40786200  1
  C  558  1  0.45372200  0.88101600  0.39004000  1
  C  571  1  0.42175700  0.86878700  0.40580500  1
  C  572  1  0.48278400  0.89218300  0.44752100  1
  C  573  1  0.48389900  0.88365400  0.31402100  1
  C  574  1  0.50385400  0.94262400  0.35051700  1
  C  579  1  0.98506800  0.60095600  0.63900000  1
  C  580  1  0.99190400  0.58063700  0.64025200  1
  C  581  1  0.00099500  0.57214400  0.65790800  1
  C  582  1  0.00336800  0.58462600  0.67536100  1
  C  583  1  0.99155100  0.60319600  0.67655100  1
  C  584  1  0.98393100  0.61194400  0.65782200  1
  C  587  1  0.97560300  0.60679100  0.61951500  1
  C  588  1  0.98573600  0.60432200  0.59999400  1
  C  589  1  0.97349500  0.60622600  0.58141000  1
  C  590  1  0.95094700  0.61134100  0.58265000  1
  C  591  1  0.94182800  0.61595400  0.60188500  1
  C  592  1  0.95369900  0.61270900  0.61972400  1
  C  605  1  0.92175700  0.62493200  0.60390300  1
  C  606  1  0.98286300  0.60157300  0.56226800  1
  C  607  1  0.98382100  0.61011600  0.69581300  1
  C  608  1  0.00373600  0.55115400  0.65935000  1
  C  613  1  0.73484900  0.88136600  0.64718700  1
  C  614  1  0.73914100  0.88104100  0.66809600  1
  C  615  1  0.74593600  0.89826400  0.67880600  1
  C  616  1  0.74794400  0.91730100  0.66892100  1
  C  617  1  0.74153800  0.91897400  0.64812700  1
  C  618  1  0.73575300  0.90077100  0.63721000  1
  C  621  1  0.72661100  0.86226000  0.63900800  1
  C  622  1  0.73649700  0.84264300  0.64161000  1
  C  623  1  0.72448900  0.82416200  0.63809700  1
  C  624  1  0.70247300  0.82563700  0.63128000  1
  C  625  1  0.69385200  0.84504900  0.62649800  1
  C  626  1  0.70545500  0.86275700  0.63113400  1
  C  639  1  0.67377700  0.84755600  0.61766600  1
  C  640  1  0.73332400  0.80490300  0.64315900  1
  C  641  1  0.74289800  0.93820900  0.63855200  1
  C  642  1  0.75169900  0.89525200  0.69874000  1
  C  647  1  0.23457100  0.61247200  0.36286600  1
  C  648  1  0.23884200  0.61280100  0.34195700  1
  C  649  1  0.24559800  0.59556900  0.33124000  1
  C  650  1  0.24762700  0.57653400  0.34112600  1
  C  651  1  0.24128300  0.57486900  0.36193800  1
  C  652  1  0.23554200  0.59308100  0.37286600  1
  C  655  1  0.22646700  0.63160400  0.37111300  1
  C  656  1  0.23636600  0.65120200  0.36844000  1
  C  657  1  0.22439900  0.66970400  0.37195300  1
  C  658  1  0.20238600  0.66827400  0.37878600  1
  C  659  1  0.19373900  0.64888000  0.38360300  1
  C  660  1  0.20531300  0.63114700  0.37899000  1
  C  673  1  0.17363200  0.64640600  0.39237500  1
  C  674  1  0.23325500  0.68895200  0.36687500  1
  C  675  1  0.24266500  0.55563700  0.37151800  1
  C  676  1  0.25130100  0.59856000  0.31128900  1
  C  681  1  0.99823500  0.60214000  0.36992700  1
  C  682  1  0.99732500  0.58086700  0.36854100  1
  C  683  1  0.99137300  0.57069000  0.35066400  1
  C  684  1  0.98618600  0.58203900  0.33301700  1
  C  685  1  0.99142600  0.60311100  0.33236100  1
  C  686  1  0.99633400  0.61326200  0.35119600  1
  C  689  1  0.00534600  0.60994700  0.38960100  1
  C  690  1  0.99571300  0.60536100  0.40895900  1
  C  691  1  0.00663700  0.61006500  0.42774400  1
  C  692  1  0.02754700  0.61950100  0.42699500  1
  C  693  1  0.03639300  0.62485200  0.40783900  1
  C  694  1  0.02565900  0.61959500  0.38980600  1
  C  707  1  0.05641100  0.63396000  0.40582900  1
  C  708  1  0.99873800  0.60316700  0.44672700  1
  C  709  1  0.99065700  0.61303100  0.31323800  1
  C  710  1  0.99321300  0.54974800  0.34978300  1
  C  715  1  0.49815600  0.89136300  0.63980400  1
  C  716  1  0.49712000  0.91263200  0.64124100  1
  C  717  1  0.49096800  0.92273800  0.65910200  1
  C  718  1  0.48574100  0.91130600  0.67668600  1
  C  719  1  0.49120600  0.89028400  0.67735100  1
  C  720  1  0.49632500  0.88020700  0.65852200  1
  C  723  1  0.50543100  0.88369800  0.62011800  1
  C  724  1  0.49574200  0.88824100  0.60077100  1
  C  725  1  0.50669300  0.88361500  0.58198100  1
  C  726  1  0.52763200  0.87423100  0.58270200  1
  C  727  1  0.53650000  0.86887400  0.60184800  1
  C  728  1  0.52575600  0.87408000  0.61989600  1
  C  741  1  0.55653000  0.85977100  0.60382500  1
  C  742  1  0.49877400  0.89052700  0.56301300  1
  C  743  1  0.49044100  0.88035500  0.69647600  1
  C  744  1  0.49269100  0.94368800  0.66007000  1
  C  749  1  0.74669400  0.61319000  0.64731900  1
  C  750  1  0.74263700  0.61434200  0.66823500  1
  C  751  1  0.73641500  0.59749900  0.67978100  1
  C  752  1  0.73540900  0.57785700  0.67098800  1
  C  753  1  0.74161600  0.57535600  0.65022900  1
  C  754  1  0.74629900  0.59325000  0.63833400  1
  C  757  1  0.75414400  0.63218600  0.63811300  1
  C  758  1  0.74439700  0.65187400  0.64080000  1
  C  759  1  0.75594500  0.67026200  0.63587100  1
  C  760  1  0.77717600  0.66881500  0.62720100  1
  C  761  1  0.78588300  0.64929600  0.62308500  1
  C  762  1  0.77480600  0.63168700  0.62916800  1
  C  775  1  0.80604500  0.64655000  0.61445600  1
  C  776  1  0.74823500  0.68951900  0.64212200  1
  C  777  1  0.74007300  0.55571700  0.64147200  1
  C  778  1  0.73083600  0.60153600  0.69956200  1
  C  783  1  0.24674000  0.88067500  0.36255300  1
  C  784  1  0.24262500  0.87950700  0.34165100  1
  C  785  1  0.23639900  0.89635000  0.33010600  1
  C  786  1  0.23542600  0.91599600  0.33889000  1
  C  787  1  0.24162600  0.91850200  0.35965000  1
  C  788  1  0.24629100  0.90060600  0.37155400  1
  C  791  1  0.25409500  0.86167300  0.37181900  1
  C  792  1  0.24435700  0.84198900  0.36910800  1
  C  793  1  0.25589100  0.82359800  0.37405200  1
  C  794  1  0.27712600  0.82503600  0.38271800  1
  C  795  1  0.28584800  0.84455400  0.38681700  1
  C  796  1  0.27477500  0.86216600  0.38073100  1
  C  809  1  0.30601500  0.84729900  0.39543500  1
  C  810  1  0.24818000  0.80433600  0.36781700  1
  C  811  1  0.24006400  0.93813600  0.36841300  1
  C  812  1  0.23077300  0.89230200  0.31033700  1
  C  817  1  0.49641200  0.10402000  0.63918800  1
  C  818  1  0.49029800  0.08349200  0.63855500  1
  C  819  1  0.48633700  0.07198000  0.65603400  1
  C  820  1  0.48983500  0.08029400  0.67561900  1
  C  821  1  0.49581200  0.10120000  0.67732200  1
  C  822  1  0.49862000  0.11296800  0.65903700  1
  C  825  1  0.50372500  0.11252500  0.61976600  1
  C  826  1  0.49332200  0.11004100  0.60034200  1
  C  827  1  0.50485100  0.11330300  0.58152500  1
  C  828  1  0.52690400  0.12009700  0.58245600  1
  C  829  1  0.53586100  0.12540000  0.60157200  1
  C  830  1  0.52481700  0.12061800  0.61955800  1
  C  843  1  0.55599400  0.13431700  0.60351300  1
  C  844  1  0.49555400  0.10810600  0.56245400  1
  C  845  1  0.50228900  0.10867700  0.69657400  1
  C  846  1  0.48039300  0.05211900  0.65283700  1
  C  851  1  0.99621800  0.38951200  0.37074600  1
  C  852  1  0.99011800  0.41004600  0.37135900  1
  C  853  1  0.98618800  0.42154600  0.35386400  1
  C  854  1  0.98967000  0.41320800  0.33428700  1
  C  855  1  0.99563200  0.39229300  0.33261300  1
  C  856  1  0.99847400  0.38055700  0.35090900  1
  C  859  1  0.00364800  0.38112200  0.39017800  1
  C  860  1  0.99321500  0.38355600  0.40959500  1
  C  861  1  0.00477000  0.38036900  0.42841000  1
  C  862  1  0.02685400  0.37366400  0.42748400  1
  C  863  1  0.03582400  0.36835800  0.40837100  1
  C  864  1  0.02474800  0.37305600  0.39037900  1
  C  877  1  0.05596900  0.35946500  0.40643500  1
  C  878  1  0.99545700  0.38555100  0.44747800  1
  C  879  1  0.00208800  0.38480700  0.31335800  1
  C  880  1  0.98033400  0.44143200  0.35704200  1
  C  885  1  0.24512100  0.11255800  0.36167700  1
  C  886  1  0.23830400  0.11355800  0.34137300  1
  C  887  1  0.23429800  0.09627400  0.32958600  1
  C  888  1  0.23881100  0.07657800  0.33726400  1
  C  889  1  0.24516900  0.07448700  0.35802700  1
  C  890  1  0.24777900  0.09256300  0.37016100  1
  C  893  1  0.25285400  0.13181700  0.37021400  1
  C  894  1  0.24251800  0.15131800  0.36812600  1
  C  895  1  0.25433500  0.17000900  0.37114300  1
  C  896  1  0.27650400  0.16889300  0.37754700  1
  C  897  1  0.28537400  0.14968600  0.38268900  1
  C  898  1  0.27409100  0.13180000  0.37797800  1
  C  911  1  0.30553400  0.14762300  0.39153300  1
  C  912  1  0.24513200  0.18911700  0.36603700  1
  C  913  1  0.25190400  0.05517800  0.36519900  1
  C  914  1  0.22906400  0.09991600  0.30964100  1
  C  919  1  0.74523200  0.38130200  0.64838900  1
  C  920  1  0.73839900  0.38029200  0.66868200  1
  C  921  1  0.73440100  0.39757700  0.68046500  1
  C  922  1  0.73886100  0.41727900  0.67277500  1
  C  923  1  0.74518800  0.41937000  0.65200300  1
  C  924  1  0.74780000  0.40129300  0.63986600  1
  C  927  1  0.75286200  0.36204100  0.63976300  1
  C  928  1  0.74254300  0.34253800  0.64190900  1
  C  929  1  0.75434900  0.32384600  0.63886900  1
  C  930  1  0.77650600  0.32495900  0.63242400  1
  C  931  1  0.78536700  0.34416500  0.62726600  1
  C  932  1  0.77409500  0.36205300  0.63198900  1
  C  945  1  0.80551800  0.34622700  0.61840000  1
  C  946  1  0.74515800  0.30473400  0.64398700  1
  C  947  1  0.75191500  0.43868100  0.64482900  1
  C  948  1  0.72911100  0.39395300  0.70040000  1
  C  953  1  0.98270900  0.39064200  0.64004000  1
  C  954  1  0.98884100  0.41116600  0.63941600  1
  C  955  1  0.99370100  0.42244100  0.65685600  1
  C  956  1  0.99122900  0.41384300  0.67645800  1
  C  957  1  0.98492500  0.39301700  0.67815000  1
  C  958  1  0.98109800  0.38151500  0.65985900  1
  C  961  1  0.97488500  0.38222300  0.62075900  1
  C  962  1  0.98494600  0.38447700  0.60114900  1
  C  963  1  0.97329300  0.38037800  0.58260200  1
  C  964  1  0.95147800  0.37301900  0.58383800  1
  C  965  1  0.94228800  0.36927100  0.60324000  1
  C  966  1  0.95357700  0.37459800  0.62095400  1
  C  979  1  0.92177800  0.36117800  0.60562700  1
  C  980  1  0.98160700  0.38617100  0.56338200  1
  C  981  1  0.97880000  0.38552800  0.69749500  1
  C  982  1  0.00034100  0.44212100  0.65362100  1
  C  987  1  0.48274800  0.10311500  0.36991800  1
  C  988  1  0.48884500  0.08257700  0.37052100  1
  C  989  1  0.49368500  0.07131500  0.35306500  1
  C  990  1  0.49122900  0.07993800  0.33347300  1
  C  991  1  0.48493500  0.10077000  0.33180800  1
  C  992  1  0.48109500  0.11224700  0.35010800  1
  C  995  1  0.47483900  0.11144500  0.38920800  1
  C  996  1  0.48493700  0.10923900  0.40880800  1
  C  997  1  0.47327800  0.11332800  0.42735400  1
  C  998  1  0.45145700  0.12067300  0.42612600  1
  C  999  1  0.44226200  0.12442300  0.40672500  1
  C  1000  1  0.45355000  0.11910600  0.38900700  1
  C  1013  1  0.42176200  0.13254100  0.40433600  1
  C  1014  1  0.48159900  0.10754000  0.44657500  1
  C  1015  1  0.47881300  0.10826400  0.31246500  1
  C  1016  1  0.50031400  0.05162800  0.35628100  1
  C  1021  1  0.23292800  0.38146700  0.36069600  1
  C  1022  1  0.23943700  0.38045400  0.34030100  1
  C  1023  1  0.24426600  0.39769900  0.32872700  1
  C  1024  1  0.24101700  0.41747000  0.33670200  1
  C  1025  1  0.23442200  0.41955800  0.35739300  1
  C  1026  1  0.23088400  0.40148400  0.36931900  1
  C  1029  1  0.22509600  0.36227200  0.36933600  1
  C  1030  1  0.23522800  0.34265800  0.36730400  1
  C  1031  1  0.22355000  0.32413500  0.37144700  1
  C  1032  1  0.20179700  0.32537700  0.37893700  1
  C  1033  1  0.19265900  0.34480300  0.38269200  1
  C  1034  1  0.20385500  0.36250200  0.37710700  1
  C  1047  1  0.17226500  0.34721500  0.39100600  1
  C  1048  1  0.23181400  0.30492900  0.36559800  1
  C  1049  1  0.22810200  0.43902300  0.36441300  1
  C  1050  1  0.25072200  0.39413400  0.30908800  1
  C  1055  1  0.73287100  0.11236600  0.64936500  1
  C  1056  1  0.73943500  0.11339800  0.66974000  1
  C  1057  1  0.74427400  0.09615800  0.68131700  1
  C  1058  1  0.74101800  0.07638300  0.67335700  1
  C  1059  1  0.73443000  0.07428200  0.65266500  1
  C  1060  1  0.73089000  0.09234800  0.64072500  1
  C  1063  1  0.72513000  0.13156000  0.64064400  1
  C  1064  1  0.73524900  0.15117400  0.64270900  1
  C  1065  1  0.72358400  0.16969900  0.63855200  1
  C  1066  1  0.70183200  0.16846200  0.63105200  1
  C  1067  1  0.69268900  0.14903800  0.62729900  1
  C  1068  1  0.70387700  0.13133600  0.63289100  1
  C  1081  1  0.67229600  0.14663200  0.61898100  1
  C  1082  1  0.73183800  0.18890700  0.64441000  1
  C  1083  1  0.72812300  0.05480900  0.64566000  1
  C  1084  1  0.75075600  0.09973400  0.70094700  1
  C  1089  1  0.98438500  0.38144400  0.77743500  1
  C  1090  1  0.97116400  0.39425500  0.76550700  1
  C  1091  1  0.97260600  0.39447400  0.74399900  1
  C  1092  1  0.98713600  0.38177800  0.73328500  1
  C  1093  1  0.00066600  0.36936200  0.74534900  1
  C  1094  1  0.99922700  0.36903100  0.76679900  1
  C  1096  1  0.94695800  0.42185600  0.74288500  1
  C  1097  1  0.94506200  0.42134500  0.76425100  1
  C  1101  1  0.93650900  0.43657500  0.72914800  1
  C  1102  1  0.92132900  0.42644500  0.71371300  1
  C  1108  1  0.93101000  0.43483300  0.77647700  1
  C  1109  1  0.90664400  0.42985700  0.77435100  1
  C  1117  1  0.48437000  0.11238000  0.23251800  1
  C  1118  1  0.47118800  0.09953700  0.24445400  1
  C  1119  1  0.47263700  0.09933500  0.26596400  1
  C  1120  1  0.48713400  0.11207600  0.27667600  1
  C  1121  1  0.50065200  0.12448200  0.26459200  1
  C  1122  1  0.49921000  0.12480100  0.24314200  1
  C  1124  1  0.44705700  0.07189600  0.26709900  1
  C  1125  1  0.44515000  0.07239200  0.24573200  1
  C  1129  1  0.43660800  0.05719400  0.28085400  1
  C  1130  1  0.42140400  0.06733600  0.29625900  1
  C  1136  1  0.43112800  0.05886500  0.23351900  1
  C  1137  1  0.40675400  0.06381000  0.23562700  1
  C  1145  1  0.23254000  0.47300300  0.14093000  1
  C  1146  1  0.22128700  0.48515600  0.15512700  1
  C  1147  1  0.22292100  0.50667300  0.15504800  1
  C  1148  1  0.23564100  0.51705900  0.14048000  1
  C  1149  1  0.24724600  0.50480900  0.12665200  1
  C  1150  1  0.24560800  0.48338600  0.12671700  1
  C  1152  1  0.20133400  0.50808200  0.18542800  1
  C  1153  1  0.19918900  0.48668200  0.18516500  1
  C  1157  1  0.19274000  0.52186200  0.20125000  1
  C  1158  1  0.17550800  0.53657400  0.19291500  1
  C  1164  1  0.18686900  0.47437900  0.20005800  1
  C  1165  1  0.16205400  0.47665700  0.19791400  1
  C  1173  1  0.73265300  0.02076400  0.86915200  1
  C  1174  1  0.72141700  0.00860600  0.85494700  1
  C  1175  1  0.72304800  0.98708800  0.85503800  1
  C  1176  1  0.73575400  0.97670200  0.86962700  1
  C  1177  1  0.74736700  0.98897000  0.88342900  1
  C  1178  1  0.74573400  0.01039100  0.88335500  1
  C  1180  1  0.70146300  0.98567600  0.82465400  1
  C  1181  1  0.69931800  0.00707600  0.82491100  1
  C  1185  1  0.69281200  0.97189100  0.80886300  1
  C  1186  1  0.67553800  0.95725100  0.81725000  1
  C  1192  1  0.68699300  0.01937800  0.81001900  1
  C  1193  1  0.66217800  0.01711500  0.81218600  1
  C  1201  1  0.49637400  0.11097300  0.77679900  1
  C  1202  1  0.51065000  0.09929500  0.76474400  1
  C  1203  1  0.50971400  0.09963900  0.74320100  1
  C  1204  1  0.49424000  0.11148700  0.73264000  1
  C  1205  1  0.47959600  0.12262900  0.74480400  1
  C  1206  1  0.48080400  0.12265500  0.76625200  1
  C  1208  1  0.53804000  0.07459900  0.74181200  1
  C  1209  1  0.53880400  0.07405500  0.76326900  1
  C  1213  1  0.55100900  0.06196400  0.72778600  1
  C  1214  1  0.56637000  0.07459300  0.71435600  1
  C  1220  1  0.55302500  0.06076100  0.77557900  1
  C  1221  1  0.57685000  0.06788400  0.77603100  1
  C  1229  1  0.99620300  0.38263100  0.23312300  1
  C  1230  1  0.01049100  0.39425800  0.24521600  1
  C  1231  1  0.00953900  0.39385400  0.26675700  1
  C  1232  1  0.99403900  0.38199900  0.27728600  1
  C  1233  1  0.97937400  0.37093400  0.26507500  1
  C  1234  1  0.98059200  0.37096600  0.24362900  1
  C  1236  1  0.03791200  0.41884600  0.26823300  1
  C  1237  1  0.03870200  0.41943700  0.24677800  1
  C  1241  1  0.05091700  0.43139800  0.28230100  1
  C  1242  1  0.06623300  0.41868600  0.29569700  1
  C  1248  1  0.05295800  0.43273900  0.23451700  1
  C  1249  1  0.07677500  0.42558900  0.23406600  1
  C  1257  1  0.24838600  0.01760200  0.14046600  1
  C  1258  1  0.26493200  0.00489400  0.14822900  1
  C  1259  1  0.26328200  0.98335600  0.14754600  1
  C  1260  1  0.24482800  0.97359200  0.13935700  1
  C  1261  1  0.22810200  0.98637000  0.13219800  1
  C  1262  1  0.22992500  0.00774800  0.13243500  1
  C  1264  1  0.29735600  0.98050900  0.16491900  1
  C  1265  1  0.29898600  0.00191700  0.16571800  1
  C  1269  1  0.31410600  0.96615600  0.17216900  1
  C  1270  1  0.33134600  0.96178800  0.15583400  1
  C  1276  1  0.31666800  0.01325600  0.17583000  1
  C  1277  1  0.31232000  0.01616200  0.19863600  1
  C  1285  1  0.74836600  0.47611500  0.86958200  1
  C  1286  1  0.76488300  0.48881200  0.86174400  1
  C  1287  1  0.76323500  0.51035200  0.86241800  1
  C  1288  1  0.74481600  0.52013300  0.87067400  1
  C  1289  1  0.72813500  0.50735300  0.87791300  1
  C  1290  1  0.72994400  0.48597600  0.87767500  1
  C  1292  1  0.79724200  0.51318100  0.84492400  1
  C  1293  1  0.79886800  0.49177100  0.84413400  1
  C  1297  1  0.81394200  0.52752600  0.83756400  1
  C  1298  1  0.83132600  0.53186500  0.85377600  1
  C  1304  1  0.81650100  0.48042700  0.83395400  1
  C  1305  1  0.81201400  0.47745900  0.81118000  1
  C  1313  1  0.00076800  0.60775600  0.23266300  1
  C  1314  1  0.01624100  0.59690300  0.24416700  1
  C  1315  1  0.01578500  0.59653700  0.26571000  1
  C  1316  1  0.00029100  0.60777200  0.27683900  1
  C  1317  1  0.98503500  0.61895600  0.26535300  1
  C  1318  1  0.98513600  0.61878100  0.24385900  1
  C  1320  1  0.04588600  0.57325000  0.26578900  1
  C  1321  1  0.04703100  0.57456800  0.24438600  1
  C  1325  1  0.05995000  0.56029700  0.27862900  1
  C  1326  1  0.08331100  0.56837000  0.28089800  1
  C  1332  1  0.06301900  0.56434300  0.23116400  1
  C  1333  1  0.07921400  0.57938100  0.22163000  1
  C  1341  1  0.50033800  0.88598800  0.77713100  1
  C  1342  1  0.51567600  0.89694600  0.76556900  1
  C  1343  1  0.51521800  0.89719400  0.74402300  1
  C  1344  1  0.49985900  0.88575400  0.73294100  1
  C  1345  1  0.48467500  0.87454900  0.74448800  1
  C  1346  1  0.48479000  0.87480900  0.76598700  1
  C  1348  1  0.54509100  0.92072700  0.74381000  1
  C  1349  1  0.54621600  0.91957100  0.76522300  1
  C  1353  1  0.55908400  0.93365800  0.73088100  1
  C  1354  1  0.58252600  0.92574300  0.72879000  1
  C  1360  1  0.56203300  0.93007600  0.77839400  1
  C  1361  1  0.57831400  0.91529300  0.78819500  1
  C  1369  1  0.48333700  0.88669600  0.23266300  1
  C  1370  1  0.46573000  0.89063900  0.24590800  1
  C  1371  1  0.46809500  0.88971500  0.26738300  1
  C  1372  1  0.48820700  0.88505600  0.27656500  1
  C  1373  1  0.50581800  0.88168200  0.26330900  1
  C  1374  1  0.50344300  0.88226600  0.24201800  1
  C  1376  1  0.43092900  0.89968800  0.27153200  1
  C  1377  1  0.42843100  0.90038800  0.25020700  1
  C  1381  1  0.41377000  0.90427400  0.28655900  1
  C  1382  1  0.39943700  0.88571800  0.29125700  1
  C  1388  1  0.40826300  0.90614100  0.23949500  1
  C  1389  1  0.40814600  0.92869200  0.23351000  1
  C  1397  1  0.98335000  0.60706900  0.77719900  1
  C  1398  1  0.96573600  0.60310600  0.76396400  1
  C  1399  1  0.96808700  0.60403800  0.74248600  1
  C  1400  1  0.98818700  0.60872500  0.73328500  1
  C  1401  1  0.00579000  0.61213900  0.74654000  1
  C  1402  1  0.00343400  0.61154000  0.76783400  1
  C  1404  1  0.93092700  0.59402600  0.73836200  1
  C  1405  1  0.92844400  0.59332900  0.75969100  1
  C  1409  1  0.91375800  0.58943700  0.72334700  1
  C  1410  1  0.89943000  0.60799600  0.71864600  1
  C  1416  1  0.90828500  0.58756600  0.77041300  1
  C  1417  1  0.90815700  0.56500300  0.77635600  1
  C  1425  1  0.73392200  0.97469100  0.64285800  1
  C  1426  1  0.72003100  0.98668400  0.65496800  1
  C  1427  1  0.72142800  0.00821500  0.65517600  1
  C  1428  1  0.73645200  0.01885000  0.64290200  1
  C  1429  1  0.75056800  0.00675000  0.63112600  1
  C  1430  1  0.74928900  0.98529800  0.63098300  1
  C  1432  1  0.69446700  0.00931300  0.68146700  1
  C  1433  1  0.69233700  0.98795400  0.68059500  1
  C  1437  1  0.68306600  0.02300800  0.69566000  1
  C  1438  1  0.66816500  0.03798500  0.68447500  1
  C  1444  1  0.67694500  0.97573100  0.69275400  1
  C  1445  1  0.65318000  0.97822800  0.68582900  1
  C  1453  1  0.23377000  0.51913900  0.36721600  1
  C  1454  1  0.21997600  0.50711300  0.35503900  1
  C  1455  1  0.22142300  0.48558400  0.35485600  1
  C  1456  1  0.23640400  0.47497800  0.36720400  1
  C  1457  1  0.25044700  0.48712000  0.37901300  1
  C  1458  1  0.24911900  0.50856900  0.37914000  1
  C  1460  1  0.19459000  0.48440200  0.32845300  1
  C  1461  1  0.19240600  0.50575700  0.32929500  1
  C  1465  1  0.18324400  0.47065500  0.31427000  1
  C  1466  1  0.16833300  0.45569500  0.32547000  1
  C  1472  1  0.17703400  0.51792800  0.31706600  1
  C  1473  1  0.15324800  0.51539100  0.32391500  1
  C  1481  1  0.74880800  0.51943600  0.64489700  1
  C  1482  1  0.76586900  0.50656000  0.65136700  1
  C  1483  1  0.76391500  0.48503400  0.65087300  1
  C  1484  1  0.74486300  0.47531000  0.64381300  1
  C  1485  1  0.72775200  0.48824100  0.63783200  1
  C  1486  1  0.72969700  0.50961500  0.63817800  1
  C  1488  1  0.79944600  0.48180300  0.66563600  1
  C  1489  1  0.80162400  0.50319100  0.66575300  1
  C  1493  1  0.81623900  0.46694600  0.67182800  1
  C  1494  1  0.83251100  0.46217100  0.65476200  1
  C  1500  1  0.82106900  0.51448100  0.67264700  1
  C  1501  1  0.82317400  0.51607800  0.69583400  1
  C  1509  1  0.24878300  0.97441900  0.36503100  1
  C  1510  1  0.26586200  0.98730500  0.35861800  1
  C  1511  1  0.26390200  0.00883600  0.35914700  1
  C  1512  1  0.24482600  0.01854400  0.36618100  1
  C  1513  1  0.22771400  0.00559600  0.37211000  1
  C  1514  1  0.22965800  0.98422400  0.37172800  1
  C  1516  1  0.29946200  0.01209500  0.34448100  1
  C  1517  1  0.30164600  0.99071600  0.34435200  1
  C  1521  1  0.31633500  0.02689600  0.33836100  1
  C  1522  1  0.33197600  0.03215300  0.35579600  1
  C  1528  1  0.32116200  0.97953400  0.33751200  1
  C  1529  1  0.32280000  0.97745200  0.31434100  1
  C  1537  1  0.98497500  0.51710000  0.85875600  1
  C  1538  1  0.96878300  0.50581900  0.84881800  1
  C  1539  1  0.96777700  0.48455000  0.85109400  1
  C  1540  1  0.98363200  0.47425000  0.86270600  1
  C  1541  1  0.99937500  0.48569400  0.87305500  1
  C  1542  1  0.99993800  0.50686700  0.87128200  1
  C  1544  1  0.93655100  0.48366400  0.82926800  1
  C  1545  1  0.93842500  0.50481600  0.82604100  1
  C  1549  1  0.91944000  0.47062200  0.82045900  1
  C  1550  1  0.89755600  0.47277600  0.83157000  1
  C  1556  1  0.92620800  0.51645200  0.81060500  1
  C  1557  1  0.93700600  0.51487500  0.78957300  1
  C  1565  1  0.48495000  0.97669600  0.15118500  1
  C  1566  1  0.46875700  0.98797400  0.16112600  1
  C  1567  1  0.46775800  0.00924500  0.15886400  1
  C  1568  1  0.48362900  0.01954900  0.14727300  1
  C  1569  1  0.49936000  0.00810600  0.13690800  1
  C  1570  1  0.49991600  0.98693400  0.13866500  1
  C  1572  1  0.43651900  0.01012300  0.18067400  1
  C  1573  1  0.43837700  0.98896400  0.18388400  1
  C  1577  1  0.41941000  0.02316400  0.18949000  1
  C  1578  1  0.39752000  0.02101100  0.17838400  1
  C  1584  1  0.42616300  0.97732200  0.19931500  1
  C  1585  1  0.43698200  0.97886000  0.22034100  1
  C  1593  1  0.23766800  0.39169800  0.27510400  1
  C  1594  1  0.21943700  0.39712000  0.26339500  1
  C  1595  1  0.21948700  0.39400100  0.24223000  1
  C  1596  1  0.23815500  0.38641100  0.23239000  1
  C  1597  1  0.25612700  0.38068200  0.24416200  1
  C  1598  1  0.25581800  0.38309100  0.26526700  1
  C  1600  1  0.18317300  0.40698400  0.24010700  1
  C  1601  1  0.18358200  0.41130000  0.26111600  1
  C  1605  1  0.16389800  0.40883700  0.22684300  1
  C  1606  1  0.14904400  0.39010600  0.22868500  1
  C  1612  1  0.16629900  0.42236000  0.27208800  1
  C  1613  1  0.16697500  0.44534600  0.26773900  1
  C  1621  1  0.73771800  0.10208500  0.73494300  1
  C  1622  1  0.71949500  0.09662000  0.74664100  1
  C  1623  1  0.71952100  0.09973400  0.76780700  1
  C  1624  1  0.73817100  0.10734600  0.77765900  1
  C  1625  1  0.75613600  0.11311800  0.76589700  1
  C  1626  1  0.75584300  0.11072400  0.74479000  1
  C  1628  1  0.68321900  0.08671100  0.76989200  1
  C  1629  1  0.68367400  0.08235900  0.74888800  1
  C  1633  1  0.66392500  0.08481100  0.78312600  1
  C  1634  1  0.64895000  0.10344400  0.78115100  1
  C  1640  1  0.66646200  0.07120600  0.73791200  1
  C  1641  1  0.66724200  0.04823200  0.74230600  1
  C  1649  1  0.49629100  0.97617400  0.85853100  1
  C  1650  1  0.51251600  0.98800600  0.84923700  1
  C  1651  1  0.51301000  0.00922200  0.85212900  1
  C  1652  1  0.49659500  0.01900000  0.86346900  1
  C  1653  1  0.48080700  0.00705700  0.87315200  1
  C  1654  1  0.48081400  0.98590700  0.87094800  1
  C  1656  1  0.54469900  0.01152500  0.83106800  1
  C  1657  1  0.54327500  0.99049100  0.82703400  1
  C  1661  1  0.56187500  0.02516600  0.82328300  1
  C  1662  1  0.58327800  0.02298200  0.83518700  1
  C  1668  1  0.55602000  0.97990700  0.81127000  1
  C  1669  1  0.54609000  0.98295300  0.79001700  1
  C  1677  1  0.99599000  0.51766700  0.15146300  1
  C  1678  1  0.01215100  0.50584900  0.16086100  1
  C  1679  1  0.01263700  0.48462400  0.15805400  1
  C  1680  1  0.99627600  0.47482600  0.14665600  1
  C  1681  1  0.98055400  0.48675700  0.13686300  1
  C  1682  1  0.98055800  0.50791400  0.13901500  1
  C  1684  1  0.04419300  0.48238900  0.17930400  1
  C  1685  1  0.04280900  0.50345100  0.18319800  1
  C  1689  1  0.06121400  0.46874200  0.18736100  1
  C  1690  1  0.08278300  0.47076400  0.17569100  1
  C  1696  1  0.05547500  0.51413900  0.19894400  1
  C  1697  1  0.04521700  0.51154300  0.22011900  1
  C  1705  1  0.24464600  0.10124600  0.27664800  1
  C  1706  1  0.26135900  0.09140600  0.26595300  1
  C  1707  1  0.26275100  0.09314000  0.24467500  1
  C  1708  1  0.24685600  0.10416500  0.23378800  1
  C  1709  1  0.23056300  0.11439500  0.24467000  1
  C  1710  1  0.22951400  0.11308100  0.26585400  1
  C  1712  1  0.29434700  0.07170700  0.24487900  1
  C  1713  1  0.29226300  0.06920100  0.26610100  1
  C  1717  1  0.31172300  0.06281100  0.23220100  1
  C  1718  1  0.33244000  0.07589300  0.23222500  1
  C  1724  1  0.30535100  0.05516800  0.27865200  1
  C  1725  1  0.29639300  0.03335100  0.27817000  1
  C  1733  1  0.74463600  0.39259000  0.73342300  1
  C  1734  1  0.76139400  0.40234000  0.74414100  1
  C  1735  1  0.76278300  0.40054300  0.76541300  1
  C  1736  1  0.74682200  0.38957900  0.77627700  1
  C  1737  1  0.73048500  0.37943600  0.76537200  1
  C  1738  1  0.72944900  0.38079400  0.74419200  1
  C  1740  1  0.79448900  0.42182900  0.76526000  1
  C  1741  1  0.79240700  0.42441700  0.74404700  1
  C  1745  1  0.81194100  0.43057700  0.77795200  1
  C  1746  1  0.83256300  0.41736300  0.77786400  1
  C  1752  1  0.80553700  0.43846100  0.73154600  1
  C  1753  1  0.79671600  0.46032400  0.73219400  1
  C  1761  1  0.74328800  0.59996500  0.73344200  1
  C  1762  1  0.75456800  0.58608200  0.74572400  1
  C  1763  1  0.75466000  0.58829500  0.76697700  1
  C  1764  1  0.74308900  0.60429800  0.77615100  1
  C  1765  1  0.73218000  0.61841200  0.76387300  1
  C  1766  1  0.73232100  0.61630000  0.74271300  1
  C  1768  1  0.77709000  0.55870600  0.77004100  1
  C  1769  1  0.77655300  0.55623800  0.74873600  1
  C  1773  1  0.79065200  0.54664800  0.78408800  1
  C  1774  1  0.81314200  0.55649400  0.78685200  1
  C  1780  1  0.78685300  0.53949000  0.73741300  1
  C  1781  1  0.77296200  0.52004200  0.73769400  1
  C  1789  1  0.24313100  0.89381100  0.27642900  1
  C  1790  1  0.25440000  0.90766700  0.26411000  1
  C  1791  1  0.25442400  0.90544900  0.24285800  1
  C  1792  1  0.24279300  0.88946000  0.23372400  1
  C  1793  1  0.23191000  0.87536100  0.24603800  1
  C  1794  1  0.23211900  0.87748200  0.26719800  1
  C  1796  1  0.27693500  0.93498100  0.23972600  1
  C  1797  1  0.27646200  0.93745300  0.26103200  1
  C  1801  1  0.29044100  0.94706400  0.22565800  1
  C  1802  1  0.31305300  0.93741800  0.22306400  1
  C  1808  1  0.28688600  0.95413700  0.27234300  1
  C  1809  1  0.27301900  0.97359800  0.27231600  1
  C  1817  1  0.73821800  0.88931900  0.73188300  1
  C  1818  1  0.71982000  0.89396300  0.74369600  1
  C  1819  1  0.72060600  0.89196700  0.76497600  1
  C  1820  1  0.73995500  0.88585500  0.77471400  1
  C  1821  1  0.75792700  0.88038500  0.76282500  1
  C  1822  1  0.75703500  0.88197700  0.74166200  1
  C  1824  1  0.68384300  0.90383600  0.76745100  1
  C  1825  1  0.68320300  0.90630500  0.74614400  1
  C  1829  1  0.66577700  0.90819200  0.78161300  1
  C  1830  1  0.64967000  0.89041400  0.78329300  1
  C  1836  1  0.66504900  0.91565500  0.73485400  1
  C  1837  1  0.66681300  0.93895900  0.73456100  1
  C  1845  1  0.23778900  0.60457000  0.27817800  1
  C  1846  1  0.21937400  0.59997400  0.26636700  1
  C  1847  1  0.22017400  0.60192700  0.24508300  1
  C  1848  1  0.23955400  0.60795200  0.23534400  1
  C  1849  1  0.25753700  0.61339400  0.24722700  1
  C  1850  1  0.25663400  0.61183800  0.26839100  1
  C  1852  1  0.18336400  0.59018100  0.24262000  1
  C  1853  1  0.18269400  0.58778100  0.26393400  1
  C  1857  1  0.16529700  0.58582900  0.22845700  1
  C  1858  1  0.14925000  0.60364800  0.22669800  1
  C  1864  1  0.16447700  0.57856000  0.27524800  1
  C  1865  1  0.16612000  0.55525100  0.27566300  1
  C  1873  1  0.48977100  0.01721300  0.35711000  1
  C  1874  1  0.47721000  0.00352700  0.34558200  1
  C  1875  1  0.48001200  0.98248400  0.34829600  1
  C  1876  1  0.49530800  0.97481700  0.36221600  1
  C  1877  1  0.50715600  0.98843800  0.37421200  1
  C  1878  1  0.50443200  0.00940000  0.37164800  1
  C  1880  1  0.45278900  0.97560100  0.32316400  1
  C  1881  1  0.45008300  0.99673100  0.32011500  1
  C  1885  1  0.44062100  0.95890600  0.31324700  1
  C  1886  1  0.41755600  0.95621900  0.32171800  1
  C  1892  1  0.43490000  0.00586400  0.30530200  1
  C  1893  1  0.44263300  0.00421700  0.28311900  1
  C  1901  1  0.98980400  0.47654000  0.65276200  1
  C  1902  1  0.97721800  0.49022400  0.66426400  1
  C  1903  1  0.98001500  0.51126600  0.66154500  1
  C  1904  1  0.99533900  0.51893700  0.64765000  1
  C  1905  1  0.00720600  0.50531100  0.63567500  1
  C  1906  1  0.00448300  0.48434900  0.63824000  1
  C  1908  1  0.95272300  0.51814900  0.68662100  1
  C  1909  1  0.95003200  0.49701600  0.68968200  1
  C  1913  1  0.94058300  0.53487000  0.69653200  1
  C  1914  1  0.91743000  0.53747200  0.68824800  1
  C  1920  1  0.93480100  0.48784600  0.70443200  1
  C  1921  1  0.94233200  0.48958600  0.72666800  1
  C  1929  1  0.99397600  0.47510000  0.35940400  1
  C  1930  1  0.01120000  0.48703600  0.35193500  1
  C  1931  1  0.01119100  0.50820900  0.35506400  1
  C  1932  1  0.99345500  0.51783100  0.36462300  1
  C  1933  1  0.97656700  0.50584000  0.37239600  1
  C  1934  1  0.97696200  0.48471800  0.37006100  1
  C  1936  1  0.04531700  0.51103100  0.33775200  1
  C  1937  1  0.04464500  0.49001700  0.33333333  1
  C  1941  1  0.06356000  0.52492600  0.33310300  1
  C  1942  1  0.08116900  0.52425300  0.34967100  1
  C  1948  1  0.06034000  0.47946800  0.32005900  1
  C  1949  1  0.05631900  0.48393300  0.29741600  1
  C  1957  1  0.49384000  0.01837200  0.65055500  1
  C  1958  1  0.51098500  0.00636100  0.65806400  1
  C  1959  1  0.51087200  0.98518700  0.65494600  1
  C  1960  1  0.49312000  0.97564100  0.64533800  1
  C  1961  1  0.47631000  0.98770500  0.63752900  1
  C  1962  1  0.47679800  0.00882500  0.63987100  1
  C  1964  1  0.54496200  0.98222500  0.67229600  1
  C  1965  1  0.54441300  0.00325200  0.67663900  1
  C  1969  1  0.56312100  0.96824700  0.67696700  1
  C  1970  1  0.58054300  0.96855900  0.66021700  1
  C  1976  1  0.56024300  0.01378600  0.68981700  1
  C  1977  1  0.55636000  0.00942900  0.71250100  1
  C  1985  1  0.88735400  0.36557800  0.89670800  1
  C  1986  1  0.87603900  0.37664800  0.88183900  1
  C  1987  1  0.85403300  0.37241600  0.87768700  1
  C  1988  1  0.84287600  0.35749800  0.88880800  1
  C  1989  1  0.85415100  0.34658600  0.90385400  1
  C  1990  1  0.87611200  0.35058500  0.90775800  1
  C  1992  1  0.85382100  0.39803800  0.85181800  1
  C  1993  1  0.87587400  0.40240200  0.85617100  1
  C  1997  1  0.84017600  0.40798700  0.83620400  1
  C  1998  1  0.82027500  0.41884300  0.84532300  1
  C  2004  1  0.88950700  0.41738700  0.84547400  1
  C  2005  1  0.89815500  0.40899500  0.82526900  1
  C  2013  1  0.38738800  0.12822400  0.11331000  1
  C  2014  1  0.37612200  0.11717700  0.12822700  1
  C  2015  1  0.35411200  0.12137800  0.13240200  1
  C  2016  1  0.34290400  0.13623800  0.12124800  1
  C  2017  1  0.35413800  0.14713800  0.10616400  1
  C  2018  1  0.37609900  0.14316700  0.10223600  1
  C  2020  1  0.35402300  0.09584500  0.15836100  1
  C  2021  1  0.37607300  0.09150100  0.15397100  1
  C  2025  1  0.34044700  0.08592200  0.17404100  1
  C  2026  1  0.32059500  0.07493100  0.16498800  1
  C  2032  1  0.38976800  0.07656800  0.16467400  1
  C  2033  1  0.39853400  0.08506100  0.18479200  1
  C  2041  1  0.13671200  0.35484100  0.12357300  1
  C  2042  1  0.12550600  0.37003300  0.13430700  1
  C  2043  1  0.10336000  0.37383700  0.13036000  1
  C  2044  1  0.09205800  0.36236800  0.11580100  1
  C  2045  1  0.10330400  0.34714100  0.10510800  1
  C  2046  1  0.12529800  0.34334400  0.10903600  1
  C  2048  1  0.10324300  0.40004000  0.15562300  1
  C  2049  1  0.12559300  0.39647900  0.15930200  1
  C  2053  1  0.08923400  0.41483300  0.16629700  1
  C  2054  1  0.07110400  0.40437200  0.17856600  1
  C  2060  1  0.13937900  0.40784000  0.17370200  1
  C  2061  1  0.14720700  0.42821200  0.16496900  1
  C  2069  1  0.63670200  0.13894300  0.88644300  1
  C  2070  1  0.62546100  0.12379400  0.87568000  1
  C  2071  1  0.60330800  0.12002400  0.87962600  1
  C  2072  1  0.59203500  0.13149300  0.89420400  1
  C  2073  1  0.60331600  0.14667100  0.90493300  1
  C  2074  1  0.62531500  0.15043800  0.90100200  1
  C  2076  1  0.60311200  0.09388200  0.85430300  1
  C  2077  1  0.62547200  0.09739600  0.85063200  1
  C  2081  1  0.58905900  0.07913700  0.84360700  1
  C  2082  1  0.57091600  0.08965300  0.83140000  1
  C  2088  1  0.63922700  0.08602500  0.83621600  1
  C  2089  1  0.64699900  0.06562200  0.84491800  1
  C  2097  1  0.09294500  0.62728300  0.11730000  1
  C  2098  1  0.10547500  0.61212100  0.12676500  1
  C  2099  1  0.12755700  0.61557000  0.13136800  1
  C  2100  1  0.13740800  0.63415600  0.12636300  1
  C  2101  1  0.12478800  0.64940000  0.11716500  1
  C  2102  1  0.10287900  0.64598600  0.11263000  1
  C  2104  1  0.13039900  0.58199200  0.14514200  1
  C  2105  1  0.10818300  0.57856400  0.14068700  1
  C  2109  1  0.14565100  0.56703100  0.15394500  1
  C  2110  1  0.16286300  0.56012300  0.13846300  1
  C  2116  1  0.09619100  0.55953200  0.14469700  1
  C  2117  1  0.08939400  0.55743400  0.16705700  1
  C  2125  1  0.59299000  0.86646000  0.89261100  1
  C  2126  1  0.60553200  0.88163700  0.88318700  1
  C  2127  1  0.62762200  0.87819900  0.87861000  1
  C  2128  1  0.63747200  0.85960900  0.88360300  1
  C  2129  1  0.62483900  0.84434900  0.89275600  1
  C  2130  1  0.60292100  0.84775100  0.89726700  1
  C  2132  1  0.63047900  0.91179900  0.86489400  1
  C  2133  1  0.60825200  0.91520900  0.86930700  1
  C  2137  1  0.64574000  0.92677100  0.85612300  1
  C  2138  1  0.66292500  0.93367000  0.87163500  1
  C  2144  1  0.59625100  0.93423100  0.86527400  1
  C  2145  1  0.58949800  0.93630200  0.84290100  1
  C  2153  1  0.84559100  0.63722700  0.88051400  1
  C  2154  1  0.85755400  0.62251300  0.86975400  1
  C  2155  1  0.87914500  0.61797200  0.87535200  1
  C  2156  1  0.88925100  0.62837000  0.89140900  1
  C  2157  1  0.87730500  0.64311600  0.90207100  1
  C  2158  1  0.85584300  0.64750200  0.89666900  1
  C  2160  1  0.88145700  0.59341800  0.84855100  1
  C  2161  1  0.85983600  0.59809100  0.84278000  1
  C  2165  1  0.89583000  0.57801800  0.83913200  1
  C  2166  1  0.91751100  0.58696600  0.83155500  1
  C  2172  1  0.84815700  0.58922400  0.82527900  1
  C  2173  1  0.85567100  0.59843800  0.80500400  1
  C  2181  1  0.34557500  0.85654400  0.12938200  1
  C  2182  1  0.35752200  0.87127500  0.14013600  1
  C  2183  1  0.37911300  0.87582900  0.13454000  1
  C  2184  1  0.38923500  0.86542900  0.11849300  1
  C  2185  1  0.37730000  0.85067300  0.10783400  1
  C  2186  1  0.35584000  0.84627200  0.11323300  1
  C  2188  1  0.38138900  0.90040500  0.16132500  1
  C  2189  1  0.35977500  0.89571300  0.16709900  1
  C  2193  1  0.39574800  0.91581700  0.17074400  1
  C  2194  1  0.41742500  0.90688400  0.17834100  1
  C  2200  1  0.34808700  0.90457100  0.18460000  1
  C  2201  1  0.35562600  0.89537600  0.20487500  1
  C  2209  1  0.38507200  0.87233700  0.39583500  1
  C  2210  1  0.37234700  0.88214500  0.38102100  1
  C  2211  1  0.35081000  0.87579800  0.37733400  1
  C  2212  1  0.34146300  0.86006900  0.38875800  1
  C  2213  1  0.35399300  0.85056700  0.40385000  1
  C  2214  1  0.37545800  0.85665200  0.40734000  1
  C  2216  1  0.34676000  0.90139400  0.35176000  1
  C  2217  1  0.36827000  0.90798500  0.35566100  1
  C  2221  1  0.33160000  0.90975500  0.33640300  1
  C  2222  1  0.31009800  0.91742800  0.34563500  1
  C  2228  1  0.37877300  0.92563500  0.34600400  1
  C  2229  1  0.37040600  0.94583800  0.35478300  1
  C  2237  1  0.88508800  0.62145600  0.61399300  1
  C  2238  1  0.87236700  0.61166400  0.62882500  1
  C  2239  1  0.85084700  0.61804200  0.63253500  1
  C  2240  1  0.84150000  0.63377400  0.62111400  1
  C  2241  1  0.85401800  0.64324800  0.60599800  1
  C  2242  1  0.87547200  0.63714100  0.60248700  1
  C  2244  1  0.84678700  0.59246400  0.65812300  1
  C  2245  1  0.86827300  0.58582300  0.65418600  1
  C  2249  1  0.83162700  0.58413700  0.67349900  1
  C  2250  1  0.81008900  0.57652000  0.66428900  1
  C  2256  1  0.87873700  0.56814100  0.66382400  1
  C  2257  1  0.87025800  0.54795400  0.65509200  1
  C  2265  1  0.63721200  0.85773600  0.62323700  1
  C  2266  1  0.62501400  0.87077300  0.63576100  1
  C  2267  1  0.60299700  0.87470800  0.63134200  1
  C  2268  1  0.59274500  0.86544700  0.61471900  1
  C  2269  1  0.60488600  0.85230300  0.60231800  1
  C  2270  1  0.62679200  0.84844300  0.60658100  1
  C  2272  1  0.60048000  0.89656800  0.66028400  1
  C  2273  1  0.62265200  0.89281600  0.66469100  1
  C  2277  1  0.58530700  0.90956600  0.67186300  1
  C  2278  1  0.56600400  0.89754900  0.68069300  1
  C  2284  1  0.63503000  0.90216000  0.68147700  1
  C  2285  1  0.64172200  0.92413800  0.67663200  1
  C  2293  1  0.13712400  0.63615700  0.38668000  1
  C  2294  1  0.12507800  0.62290600  0.37425800  1
  C  2295  1  0.10307000  0.61887600  0.37862900  1
  C  2296  1  0.09266600  0.62829700  0.39508000  1
  C  2297  1  0.10466200  0.64165900  0.40737800  1
  C  2298  1  0.12656400  0.64559300  0.40317300  1
  C  2300  1  0.10090500  0.59662500  0.34995100  1
  C  2301  1  0.12305100  0.60052900  0.34556900  1
  C  2305  1  0.08593300  0.58332800  0.33848000  1
  C  2306  1  0.06648000  0.59503100  0.32952100  1
  C  2312  1  0.13559300  0.59116300  0.32890600  1
  C  2313  1  0.14262500  0.56933700  0.33400200  1
  C  2321  1  0.59219800  0.12857100  0.61526200  1
  C  2322  1  0.60525500  0.11269900  0.62267800  1
  C  2323  1  0.62738400  0.11603500  0.62712200  1
  C  2324  1  0.63671200  0.13525400  0.62410300  1
  C  2325  1  0.62359900  0.15117800  0.61687300  1
  C  2326  1  0.60162900  0.14786500  0.61244700  1
  C  2328  1  0.63115300  0.08130400  0.63713900  1
  C  2329  1  0.60892000  0.07792200  0.63280400  1
  C  2333  1  0.64669800  0.06589800  0.64440700  1
  C  2334  1  0.66191100  0.05843700  0.62745500  1
  C  2340  1  0.59742300  0.05835500  0.63506700  1
  C  2341  1  0.58951900  0.05479900  0.65691500  1
  C  2349  1  0.09215900  0.36523900  0.39467800  1
  C  2350  1  0.10521900  0.38112700  0.38729900  1
  C  2351  1  0.12735200  0.37780200  0.38286300  1
  C  2352  1  0.13668500  0.35858300  0.38587100  1
  C  2353  1  0.12356600  0.34264100  0.39304700  1
  C  2354  1  0.10158900  0.34593900  0.39745100  1
  C  2356  1  0.13111700  0.41254500  0.37288500  1
  C  2357  1  0.10888900  0.41592200  0.37724000  1
  C  2361  1  0.14664400  0.42795700  0.36558900  1
  C  2362  1  0.16176600  0.43554500  0.38255500  1
  C  2368  1  0.09740300  0.43550200  0.37504800  1
  C  2369  1  0.08934100  0.43905800  0.35325100  1
  C  2377  1  0.34150700  0.13513300  0.38618400  1
  C  2378  1  0.35446900  0.12701000  0.37059900  1
  C  2379  1  0.37667800  0.12294900  0.37395700  1
  C  2380  1  0.38618100  0.12692100  0.39292000  1
  C  2381  1  0.37311500  0.13472500  0.40859800  1
  C  2382  1  0.35109300  0.13888100  0.40524500  1
  C  2384  1  0.38036800  0.11176900  0.33958800  1
  C  2385  1  0.35794600  0.11529000  0.33631100  1
  C  2389  1  0.39614800  0.10474700  0.32427100  1
  C  2390  1  0.41292000  0.12121700  0.31883500  1
  C  2396  1  0.34622900  0.11156100  0.31708400  1
  C  2397  1  0.34126900  0.08891700  0.31364900  1
  C  2405  1  0.84152000  0.35863500  0.62377200  1
  C  2406  1  0.85449300  0.36673000  0.63936500  1
  C  2407  1  0.87670700  0.37077400  0.63600900  1
  C  2408  1  0.88620500  0.36680200  0.61704500  1
  C  2409  1  0.87312700  0.35903500  0.60135900  1
  C  2410  1  0.85110000  0.35490000  0.60470700  1
  C  2412  1  0.88040800  0.38192300  0.67038600  1
  C  2413  1  0.85798100  0.37842300  0.67366100  1
  C  2417  1  0.89618600  0.38895000  0.68570200  1
  C  2418  1  0.91295700  0.37248100  0.69114700  1
  C  2424  1  0.84626600  0.38214900  0.69288900  1
  C  2425  1  0.84130900  0.40479200  0.69632800  1
  C  2433  1  0.98593200  0.37952200  0.98398100  1
  C  2434  1  0.00113400  0.39252100  0.99345900  1
  C  2435  1  0.00421800  0.39246000  0.01489300  1
  C  2436  1  0.99199400  0.37962500  0.02780900  1
  C  2437  1  0.97734600  0.36633100  0.01816100  1
  C  2438  1  0.97424600  0.36644800  0.99695500  1
  C  2440  1  0.03290100  0.41687600  0.01123200  1
  C  2441  1  0.02961800  0.41710100  0.98996700  1
  C  2445  1  0.04961200  0.42852500  0.02243400  1
  C  2446  1  0.06723800  0.41471200  0.03161600  1
  C  2452  1  0.04211000  0.42937400  0.97522800  1
  C  2453  1  0.03426700  0.45154400  0.97431400  1
  C  2461  1  0.48592600  0.11427300  0.02596600  1
  C  2462  1  0.50113600  0.10129100  0.01647800  1
  C  2463  1  0.50420700  0.10136000  0.99504200  1
  C  2464  1  0.49197200  0.11419600  0.98213300  1
  C  2465  1  0.47730400  0.12746200  0.99179700  1
  C  2466  1  0.47421400  0.12733500  0.01300200  1
  C  2468  1  0.53291800  0.07696600  0.99868700  1
  C  2469  1  0.52964000  0.07672800  0.01995400  1
  C  2473  1  0.54962200  0.06532100  0.98747300  1
  C  2474  1  0.56722800  0.07913900  0.97826500  1
  C  2480  1  0.54215100  0.06446300  0.03468400  1
  C  2481  1  0.53432600  0.04228900  0.03560100  1
  C  2489  1  0.23534500  0.26643500  0.13791500  1
  C  2490  1  0.25077200  0.25718800  0.15083900  1
  C  2491  1  0.25405500  0.23577200  0.15091400  1
  C  2492  1  0.24180600  0.22266900  0.13829500  1
  C  2493  1  0.22692700  0.23208900  0.12506800  1
  C  2494  1  0.22363600  0.25327800  0.12504900  1
  C  2496  1  0.28297100  0.23986000  0.17500900  1
  C  2497  1  0.27949400  0.26111300  0.17510000  1
  C  2501  1  0.29993300  0.22889700  0.18656600  1
  C  2502  1  0.31766400  0.22003800  0.17266300  1
  C  2508  1  0.29199500  0.27606100  0.18710800  1
  C  2509  1  0.28431200  0.27718800  0.20930300  1
  C  2517  1  0.73533700  0.22729300  0.87213800  1
  C  2518  1  0.75075200  0.23655400  0.85921300  1
  C  2519  1  0.75402200  0.25796900  0.85914300  1
  C  2520  1  0.74177600  0.27106400  0.87177900  1
  C  2521  1  0.72689900  0.26163000  0.88499400  1
  C  2522  1  0.72361800  0.24043900  0.88500800  1
  C  2524  1  0.78293400  0.25390000  0.83503800  1
  C  2525  1  0.77946200  0.23264800  0.83493800  1
  C  2529  1  0.79987500  0.26487600  0.82346600  1
  C  2530  1  0.81760800  0.27375000  0.83735200  1
  C  2536  1  0.79196500  0.21770700  0.82291900  1
  C  2537  1  0.78426600  0.21657800  0.80073100  1
  C  2545  1  0.99513800  0.61628300  0.02621800  1
  C  2546  1  0.98012400  0.60316400  0.01664200  1
  C  2547  1  0.97711500  0.60328000  0.99520800  1
  C  2548  1  0.98921800  0.61631800  0.98240400  1
  C  2549  1  0.00367900  0.62972800  0.99213300  1
  C  2550  1  0.00672600  0.62953100  0.01334400  1
  C  2552  1  0.94881800  0.57843400  0.99864900  1
  C  2553  1  0.95200500  0.57817400  0.01992400  1
  C  2557  1  0.93236800  0.56655900  0.98735000  1
  C  2558  1  0.91440200  0.58010000  0.97834200  1
  C  2564  1  0.93965700  0.56567300  0.03457500  1
  C  2565  1  0.94795000  0.54365000  0.03552700  1
  C  2573  1  0.49523600  0.87749400  0.98367500  1
  C  2574  1  0.48019200  0.89057900  0.99326200  1
  C  2575  1  0.47718100  0.89044100  0.01469700  1
  C  2576  1  0.48929900  0.87740900  0.02749800  1
  C  2577  1  0.50379300  0.86404100  0.01775500  1
  C  2578  1  0.50684600  0.86425800  0.99654400  1
  C  2580  1  0.44883900  0.91524500  0.01127300  1
  C  2581  1  0.45203500  0.91553100  0.99000000  1
  C  2585  1  0.43238600  0.92710300  0.02258500  1
  C  2586  1  0.41444300  0.91354600  0.03160500  1
  C  2592  1  0.43967100  0.92802900  0.97535900  1
  C  2593  1  0.44794400  0.95006000  0.97442300  1
  C  2601  1  0.74611800  0.72746700  0.86875200  1
  C  2602  1  0.73020700  0.73680700  0.85641000  1
  C  2603  1  0.72673400  0.75820100  0.85672900  1
  C  2604  1  0.73927000  0.77123100  0.86918400  1
  C  2605  1  0.75467000  0.76172900  0.88182600  1
  C  2606  1  0.75816500  0.74056000  0.88142100  1
  C  2608  1  0.69720900  0.75421600  0.83326800  1
  C  2609  1  0.70080400  0.73299100  0.83285400  1
  C  2613  1  0.67975700  0.76510500  0.82231200  1
  C  2614  1  0.66128600  0.77173500  0.83659400  1
  C  2620  1  0.68794200  0.71809000  0.82112100  1
  C  2621  1  0.69545100  0.71658700  0.79890100  1
  C  2629  1  0.24608400  0.76626200  0.14116000  1
  C  2630  1  0.23016800  0.75692400  0.15350000  1
  C  2631  1  0.22669600  0.73552900  0.15318500  1
  C  2632  1  0.23923000  0.72249500  0.14072800  1
  C  2633  1  0.25463600  0.73199900  0.12809600  1
  C  2634  1  0.25813100  0.75316600  0.12849700  1
  C  2636  1  0.19716100  0.73952500  0.17663800  1
  C  2637  1  0.20076800  0.76074700  0.17705700  1
  C  2641  1  0.17972300  0.72863600  0.18761600  1
  C  2642  1  0.16126700  0.72194900  0.17334400  1
  C  2648  1  0.18790800  0.77565400  0.18878700  1
  C  2649  1  0.19541600  0.77715800  0.21100700  1
  C  2657  1  0.48462400  0.88264800  0.48392000  1
  C  2658  1  0.50049200  0.89501000  0.49331000  1
  C  2659  1  0.50387500  0.89466100  0.51469400  1
  C  2660  1  0.49130200  0.88214300  0.52762600  1
  C  2661  1  0.47595700  0.86948200  0.51807300  1
  C  2662  1  0.47254800  0.86991800  0.49691800  1
  C  2664  1  0.53338600  0.91818900  0.51087700  1
  C  2665  1  0.52985700  0.91866400  0.48965600  1
  C  2669  1  0.55071300  0.92920500  0.52188800  1
  C  2670  1  0.56874800  0.91486900  0.52940700  1
  C  2676  1  0.54268700  0.93052500  0.47483600  1
  C  2677  1  0.53531400  0.95281900  0.47364500  1
  C  2685  1  0.98463900  0.61107900  0.52583700  1
  C  2686  1  0.00052900  0.59875500  0.51643000  1
  C  2687  1  0.00388800  0.59910900  0.49504200  1
  C  2688  1  0.99127100  0.61159600  0.48211400  1
  C  2689  1  0.97589900  0.62421200  0.49168400  1
  C  2690  1  0.97251200  0.62377200  0.51284500  1
  C  2692  1  0.03346600  0.57565200  0.49883300  1
  C  2693  1  0.02995400  0.57516400  0.52005500  1
  C  2697  1  0.05079900  0.56466200  0.48780200  1
  C  2698  1  0.06881500  0.57902200  0.48029400  1
  C  2704  1  0.04283100  0.56332700  0.53486100  1
  C  2705  1  0.03549100  0.54102500  0.53607400  1
  C  2713  1  0.73568000  0.76862300  0.63335100  1
  C  2714  1  0.75052600  0.75898600  0.64659200  1
  C  2715  1  0.75355100  0.73754900  0.64636500  1
  C  2716  1  0.74164800  0.72483400  0.63308800  1
  C  2717  1  0.72738000  0.73463100  0.61955900  1
  C  2718  1  0.72430600  0.75584100  0.61986300  1
  C  2720  1  0.78147700  0.74081500  0.67158600  1
  C  2721  1  0.77826500  0.76209900  0.67196700  1
  C  2725  1  0.79773000  0.72940400  0.68359400  1
  C  2726  1  0.81569000  0.72015400  0.67021600  1
  C  2732  1  0.79037900  0.77666200  0.68477200  1
  C  2733  1  0.78183000  0.77730300  0.70670900  1
  C  2741  1  0.23562200  0.72523600  0.37666900  1
  C  2742  1  0.25046400  0.73486700  0.36342200  1
  C  2743  1  0.25348800  0.75630400  0.36363300  1
  C  2744  1  0.24158900  0.76903000  0.37690800  1
  C  2745  1  0.22731700  0.75923700  0.39043500  1
  C  2746  1  0.22424500  0.73802600  0.39014800  1
  C  2748  1  0.28141600  0.75301700  0.33841400  1
  C  2749  1  0.27819900  0.73173400  0.33804500  1
  C  2753  1  0.29765500  0.76441800  0.32638300  1
  C  2754  1  0.31561600  0.77369700  0.33974400  1
  C  2760  1  0.29031300  0.71715900  0.32525300  1
  C  2761  1  0.28175700  0.71649500  0.30331800  1
  C  2769  1  0.49352600  0.11713100  0.52581200  1
  C  2770  1  0.47874800  0.10371600  0.51632500  1
  C  2771  1  0.47567100  0.10366900  0.49489500  1
  C  2772  1  0.48750900  0.11682200  0.48198300  1
  C  2773  1  0.50175400  0.13050200  0.49161700  1
  C  2774  1  0.50487100  0.13045700  0.51282700  1
  C  2776  1  0.44789700  0.07834300  0.49856700  1
  C  2777  1  0.45115600  0.07825700  0.51983000  1
  C  2781  1  0.43158500  0.06614900  0.48744400  1
  C  2782  1  0.41272600  0.07924700  0.47944100  1
  C  2788  1  0.43903900  0.06569800  0.53459900  1
  C  2789  1  0.44798600  0.04392500  0.53599800  1
  C  2797  1  0.99351100  0.37656500  0.48413800  1
  C  2798  1  0.97872400  0.38996400  0.49363500  1
  C  2799  1  0.97566600  0.39001100  0.51506900  1
  C  2800  1  0.98752500  0.37686600  0.52797300  1
  C  2801  1  0.00178300  0.36320800  0.51832700  1
  C  2802  1  0.00488300  0.36325400  0.49711600  1
  C  2804  1  0.94786100  0.41531200  0.51141400  1
  C  2805  1  0.95111000  0.41540800  0.49014700  1
  C  2809  1  0.93155800  0.42750500  0.52254900  1
  C  2810  1  0.91272100  0.41440200  0.53058600  1
  C  2816  1  0.93897100  0.42795700  0.47538700  1
  C  2817  1  0.94789900  0.44973800  0.47398500  1
  C  2825  1  0.24340800  0.22571000  0.37511700  1
  C  2826  1  0.22871600  0.23528100  0.36168400  1
  C  2827  1  0.22578600  0.25673200  0.36165700  1
  C  2828  1  0.23768700  0.26954500  0.37485000  1
  C  2829  1  0.25185000  0.25983000  0.38853700  1
  C  2830  1  0.25483000  0.23860200  0.38846700  1
  C  2832  1  0.19805600  0.25326500  0.33627000  1
  C  2833  1  0.20117200  0.23196900  0.33615800  1
  C  2837  1  0.18187600  0.26452400  0.32404400  1
  C  2838  1  0.16318100  0.27289100  0.33711300  1
  C  2844  1  0.18900700  0.21728400  0.32354100  1
  C  2845  1  0.19793800  0.21595200  0.30177000  1
  C  2853  1  0.74343900  0.26813900  0.63489800  1
  C  2854  1  0.72873500  0.25855900  0.64831300  1
  C  2855  1  0.72581300  0.23710600  0.64833400  1
  C  2856  1  0.73772400  0.22429500  0.63514300  1
  C  2857  1  0.75190000  0.23402100  0.62147700  1
  C  2858  1  0.75487400  0.25525200  0.62155100  1
  C  2860  1  0.69805200  0.24056500  0.67369600  1
  C  2861  1  0.70116700  0.26186000  0.67381600  1
  C  2865  1  0.68187600  0.22929900  0.68591800  1
  C  2866  1  0.66319000  0.22092100  0.67284600  1
  C  2872  1  0.68898200  0.27654200  0.68642300  1
  C  2873  1  0.69789700  0.27788600  0.70819900  1
  N  8  1  0.00442200  0.41869500  0.81747900  1
  N  15  1  0.93951500  0.37446600  0.94438300  1
  N  17  1  0.98394700  0.35755400  0.85316900  1
  N  18  1  0.00588400  0.39462900  0.90930400  1
  N  42  1  0.50440100  0.07511100  0.19248300  1
  N  49  1  0.43953100  0.11926300  0.06554900  1
  N  51  1  0.48392200  0.13624000  0.15677600  1
  N  52  1  0.50592000  0.09919000  0.10065100  1
  N  76  1  0.25412300  0.43273600  0.17737300  1
  N  83  1  0.18864000  0.30606800  0.13302600  1
  N  85  1  0.23208600  0.39769500  0.11623600  1
  N  86  1  0.25552800  0.34086700  0.15218400  1
  N  110  1  0.75414400  0.06101400  0.83265900  1
  N  117  1  0.68863900  0.18766100  0.87700500  1
  N  119  1  0.73218600  0.09607500  0.89382300  1
  N  120  1  0.75552300  0.15285900  0.85784100  1
  N  144  1  0.47557000  0.07391000  0.81733700  1
  N  151  1  0.53969900  0.12575800  0.94328600  1
  N  153  1  0.49595900  0.13553800  0.85197800  1
  N  154  1  0.47605300  0.09749100  0.90954400  1
  N  178  1  0.97528700  0.41974400  0.19264200  1
  N  185  1  0.03973300  0.36816000  0.06668700  1
  N  187  1  0.99596400  0.35825800  0.15790600  1
  N  188  1  0.97598100  0.39629200  0.10037700  1
  N  212  1  0.22911100  0.05742900  0.17921000  1
  N  219  1  0.28992900  0.18450300  0.12670900  1
  N  221  1  0.24713900  0.09268700  0.11726300  1
  N  222  1  0.22705000  0.14989300  0.15548200  1
  N  246  1  0.72914000  0.43629700  0.83084100  1
  N  253  1  0.78989500  0.30920400  0.88335900  1
  N  255  1  0.74710000  0.40102400  0.89281200  1
  N  256  1  0.72705500  0.34386100  0.85456300  1
  N  280  1  0.97798400  0.56995700  0.19180800  1
  N  287  1  0.04159600  0.61978700  0.06659200  1
  N  289  1  0.99997500  0.63314300  0.15955400  1
  N  290  1  0.97329100  0.60246700  0.09995400  1
  N  314  1  0.47791300  0.92388900  0.81809700  1
  N  321  1  0.54164800  0.87396700  0.94326200  1
  N  323  1  0.49986200  0.86067800  0.85032900  1
  N  324  1  0.47335800  0.89140900  0.90992800  1
  N  348  1  0.71894100  0.56132500  0.83543900  1
  N  355  1  0.79340700  0.68769700  0.86913300  1
  N  357  1  0.75465700  0.59564500  0.89000200  1
  N  358  1  0.72441300  0.65316900  0.85731200  1
  N  382  1  0.21871000  0.93232400  0.17431700  1
  N  389  1  0.29339000  0.80601600  0.14079900  1
  N  391  1  0.25462100  0.89802700  0.11984800  1
  N  392  1  0.22440200  0.84056400  0.15256900  1
  N  416  1  0.50292300  0.92573100  0.19109400  1
  N  423  1  0.44108700  0.86836800  0.06700900  1
  N  425  1  0.48187700  0.86157200  0.16026600  1
  N  426  1  0.50751700  0.89223400  0.09936100  1
  N  450  1  0.00294100  0.56805800  0.81878800  1
  N  457  1  0.94105600  0.62534000  0.94288700  1
  N  459  1  0.98185400  0.63220100  0.84961800  1
  N  460  1  0.00752000  0.60153600  0.91052900  1
  N  484  1  0.74975000  0.93731400  0.82719400  1
  N  491  1  0.69030200  0.80962800  0.87844700  1
  N  493  1  0.72898800  0.90341200  0.88942500  1
  N  494  1  0.75588500  0.84408700  0.85545000  1
  N  518  1  0.24941200  0.55647000  0.18296500  1
  N  525  1  0.19025800  0.68412100  0.13142500  1
  N  527  1  0.22900700  0.59032600  0.12058600  1
  N  528  1  0.25575100  0.64962800  0.15460000  1
  N  552  1  0.51787300  0.91461900  0.31973100  1
  N  559  1  0.43745000  0.88256800  0.44359600  1
  N  561  1  0.47693800  0.86227300  0.35205400  1
  N  562  1  0.50745400  0.89322000  0.41048500  1
  N  586  1  0.01780600  0.57918700  0.69010400  1
  N  593  1  0.93750300  0.61107600  0.56614400  1
  N  595  1  0.97685600  0.63149500  0.65774800  1
  N  596  1  0.00748300  0.60057400  0.59935400  1
  N  620  1  0.75635800  0.93333700  0.67949300  1
  N  627  1  0.68902900  0.80915800  0.63010800  1
  N  629  1  0.73158100  0.90164800  0.61696600  1
  N  630  1  0.75778300  0.84187700  0.64718700  1
  N  654  1  0.25600900  0.56049300  0.33053700  1
  N  661  1  0.18896000  0.68476800  0.37992500  1
  N  663  1  0.23143600  0.59221900  0.39312100  1
  N  664  1  0.25764100  0.65192500  0.36283200  1
  N  688  1  0.97557200  0.57273400  0.31732600  1
  N  695  1  0.03974100  0.62281000  0.44402700  1
  N  697  1  0.99869500  0.63377500  0.35150000  1
  N  698  1  0.97564300  0.59671400  0.40931100  1
  N  722  1  0.47488900  0.92048900  0.69230400  1
  N  729  1  0.53982700  0.87098800  0.56565700  1
  N  731  1  0.49890700  0.85971900  0.65820700  1
  N  732  1  0.47562600  0.89679400  0.60042800  1
  N  756  1  0.72782700  0.56211800  0.68249900  1
  N  763  1  0.78974300  0.68552200  0.62346500  1
  N  765  1  0.74980900  0.59151300  0.61803800  1
  N  766  1  0.72362800  0.65294400  0.64780500  1
  N  790  1  0.22788400  0.93174200  0.32736400  1
  N  797  1  0.28968900  0.80832900  0.38645600  1
  N  799  1  0.24977600  0.90234000  0.39185700  1
  N  800  1  0.22358800  0.84092600  0.36211200  1
  N  824  1  0.48789300  0.06782100  0.69210200  1
  N  831  1  0.54012500  0.12069500  0.56579200  1
  N  833  1  0.50283900  0.13318100  0.66044400  1
  N  834  1  0.47188800  0.10497600  0.60007400  1
  N  858  1  0.98773200  0.42567100  0.31779600  1
  N  865  1  0.04008100  0.37316600  0.44415100  1
  N  867  1  0.00272500  0.36035100  0.34952800  1
  N  868  1  0.97175600  0.38854400  0.40985200  1
  N  892  1  0.23759300  0.06041300  0.32429200  1
  N  899  1  0.28987900  0.18546600  0.37791900  1
  N  901  1  0.25223700  0.09085700  0.39029700  1
  N  902  1  0.22093900  0.15179600  0.36361500  1
  N  926  1  0.73761300  0.43345100  0.68573900  1
  N  933  1  0.78988300  0.30838900  0.63204200  1
  N  935  1  0.75221200  0.40299300  0.61971900  1
  N  936  1  0.72097600  0.34206800  0.64644400  1
  N  960  1  0.99451700  0.42596600  0.69300700  1
  N  967  1  0.93882400  0.37021500  0.56700800  1
  N  969  1  0.97644600  0.36138000  0.66123200  1
  N  970  1  0.00619400  0.39009900  0.60028400  1
  N  994  1  0.49453000  0.06783300  0.31691200  1
  N  1001  1  0.43880100  0.12345600  0.44295900  1
  N  1003  1  0.47644600  0.13238000  0.34875400  1
  N  1004  1  0.50619200  0.10363400  0.40966300  1
  N  1028  1  0.24375600  0.43375400  0.32409700  1
  N  1035  1  0.18916100  0.30854800  0.38187200  1
  N  1037  1  0.22613600  0.40327400  0.38938800  1
  N  1038  1  0.25651900  0.34174900  0.36181100  1
  N  1062  1  0.74375400  0.06010600  0.68597300  1
  N  1069  1  0.68920100  0.18529300  0.62811200  1
  N  1071  1  0.72615500  0.09055300  0.62065200  1
  N  1072  1  0.75653800  0.15207800  0.64819400  1
  N  1095  1  0.96065300  0.40847100  0.73405600  1
  N  1098  1  0.95746600  0.40768700  0.77435400  1
  N  1115  1  0.98442500  0.38426400  0.79773600  1
  N  1116  1  0.99132600  0.38453500  0.71324600  1
  N  1123  1  0.46071500  0.08532100  0.27591300  1
  N  1126  1  0.45752100  0.08607000  0.23561900  1
  N  1143  1  0.48439900  0.10953600  0.21222000  1
  N  1144  1  0.49132800  0.10928400  0.29670800  1
  N  1151  1  0.21309600  0.51680000  0.17038000  1
  N  1154  1  0.20950300  0.47648100  0.17014100  1
  N  1171  1  0.23279700  0.45270600  0.14381300  1
  N  1172  1  0.24078900  0.53690200  0.14271000  1
  N  1179  1  0.71321700  0.97695900  0.83971000  1
  N  1182  1  0.70963300  0.01727800  0.83993000  1
  N  1199  1  0.73287600  0.04106200  0.86625900  1
  N  1200  1  0.74089100  0.95685900  0.86737700  1
  N  1207  1  0.52337200  0.08717400  0.73308600  1
  N  1210  1  0.52501500  0.08641900  0.77347400  1
  N  1227  1  0.49635100  0.10799700  0.79709400  1
  N  1228  1  0.49014100  0.10881600  0.71259900  1
  N  1235  1  0.02321600  0.40627100  0.27691300  1
  N  1238  1  0.02489300  0.40712800  0.23653000  1
  N  1255  1  0.99620300  0.38567800  0.21283800  1
  N  1256  1  0.98995000  0.38468300  0.29732600  1
  N  1263  1  0.27956200  0.97243500  0.15593400  1
  N  1266  1  0.28260400  0.01291200  0.15746600  1
  N  1283  1  0.24912400  0.03778100  0.14412700  1
  N  1284  1  0.24040500  0.95376800  0.14244200  1
  N  1291  1  0.77948100  0.52125900  0.85395600  1
  N  1294  1  0.78251600  0.48078700  0.85244900  1
  N  1311  1  0.74912500  0.45593100  0.86594000  1
  N  1312  1  0.74042300  0.53996400  0.86758400  1
  N  1319  1  0.03039500  0.58444700  0.27523000  1
  N  1322  1  0.03193400  0.58603000  0.23481500  1
  N  1339  1  0.00003700  0.60455200  0.21237000  1
  N  1340  1  0.99931900  0.60520400  0.29716500  1
  N  1347  1  0.52972100  0.90933900  0.73443500  1
  N  1350  1  0.53124100  0.90802800  0.77485900  1
  N  1367  1  0.49967600  0.88922700  0.79742900  1
  N  1368  1  0.49887300  0.88827600  0.71260800  1
  N  1375  1  0.45067300  0.89447100  0.27890600  1
  N  1378  1  0.44601800  0.89604500  0.23857600  1
  N  1395  1  0.48171500  0.89062000  0.21252000  1
  N  1396  1  0.49241700  0.88744100  0.29651100  1
  N  1403  1  0.95066000  0.59926600  0.73097800  1
  N  1406  1  0.94603500  0.59768500  0.77130900  1
  N  1423  1  0.98171400  0.60315500  0.79734800  1
  N  1424  1  0.99235700  0.60636500  0.71332600  1
  N  1431  1  0.70883500  0.01817400  0.66868600  1
  N  1434  1  0.70549200  0.97784500  0.66758900  1
  N  1451  1  0.73403200  0.95439300  0.64588300  1
  N  1452  1  0.74049900  0.03893000  0.64537100  1
  N  1459  1  0.20891300  0.47558800  0.34130500  1
  N  1462  1  0.20547500  0.51590800  0.34234700  1
  N  1479  1  0.23382000  0.53944000  0.36418600  1
  N  1480  1  0.24047300  0.45490300  0.36473000  1
  N  1487  1  0.78072100  0.47403900  0.65817900  1
  N  1490  1  0.78463500  0.51433100  0.65875900  1
  N  1507  1  0.74981500  0.53972900  0.64839200  1
  N  1508  1  0.74076300  0.45526000  0.64638300  1
  N  1515  1  0.28072600  0.01985500  0.35190900  1
  N  1518  1  0.28465300  0.97954200  0.35127300  1
  N  1535  1  0.24982800  0.95412500  0.36152200  1
  N  1536  1  0.24075300  0.03860100  0.36363200  1
  N  1543  1  0.95145500  0.47471300  0.84146700  1
  N  1546  1  0.95442700  0.51474100  0.83605400  1
  N  1563  1  0.98482600  0.53697700  0.85631900  1
  N  1564  1  0.98590800  0.45423800  0.86327100  1
  N  1571  1  0.45143600  0.01907900  0.16849200  1
  N  1574  1  0.45438900  0.97904900  0.17387500  1
  N  1591  1  0.48479300  0.95681500  0.15360400  1
  N  1592  1  0.48589500  0.03956100  0.14670300  1
  N  1599  1  0.20119800  0.39863400  0.23184100  1
  N  1602  1  0.20163400  0.40597000  0.27165700  1
  N  1619  1  0.23653100  0.39453000  0.29493700  1
  N  1620  1  0.24028700  0.38593800  0.21239600  1
  N  1627  1  0.70122700  0.09507800  0.77817700  1
  N  1630  1  0.70172600  0.08772200  0.73836500  1
  N  1647  1  0.73658600  0.09927000  0.71511200  1
  N  1648  1  0.74028400  0.10781900  0.79765400  1
  N  1655  1  0.52933400  0.01972000  0.84324400  1
  N  1658  1  0.52733600  0.97983300  0.83642500  1
  N  1675  1  0.49687100  0.95626800  0.85588800  1
  N  1676  1  0.49401200  0.03900100  0.86404800  1
  N  1683  1  0.02888400  0.47415100  0.16709200  1
  N  1686  1  0.02692200  0.51406700  0.17368900  1
  N  1703  1  0.99660000  0.53757500  0.15405600  1
  N  1704  1  0.99373800  0.45482200  0.14603900  1
  N  1711  1  0.27942900  0.08348000  0.23541000  1
  N  1714  1  0.27591700  0.07927600  0.27547000  1
  N  1731  1  0.24426600  0.09898700  0.29650100  1
  N  1732  1  0.24502000  0.10423700  0.21373100  1
  N  1739  1  0.77951500  0.41009900  0.77470100  1
  N  1742  1  0.77600500  0.41443800  0.73465600  1
  N  1759  1  0.74427900  0.39488600  0.71357400  1
  N  1760  1  0.74500100  0.38948000  0.79633400  1
  N  1767  1  0.76619900  0.57470600  0.77798900  1
  N  1770  1  0.76535900  0.57009000  0.73774400  1
  N  1787  1  0.74440000  0.59742000  0.71361100  1
  N  1788  1  0.74203800  0.60595700  0.79609500  1
  N  1795  1  0.26596300  0.91901300  0.23181300  1
  N  1798  1  0.26526000  0.92363200  0.27205500  1
  N  1815  1  0.24432100  0.89635700  0.29625700  1
  N  1816  1  0.24172100  0.88775900  0.21378400  1
  N  1823  1  0.70255400  0.89683500  0.77562800  1
  N  1826  1  0.70125600  0.90130900  0.73543500  1
  N  1843  1  0.73696000  0.89210600  0.71204600  1
  N  1844  1  0.74255800  0.88662300  0.79464600  1
  N  1851  1  0.20211100  0.59709000  0.23443400  1
  N  1854  1  0.20076900  0.59272500  0.27463600  1
  N  1871  1  0.23654300  0.60176800  0.29801500  1
  N  1872  1  0.24216800  0.60715700  0.21541600  1
  N  1879  1  0.46760000  0.96982000  0.33712200  1
  N  1882  1  0.46240500  0.00952800  0.33154600  1
  N  1899  1  0.48682400  0.03695000  0.35444600  1
  N  1900  1  0.49771200  0.95499600  0.36443300  1
  N  1907  1  0.96756800  0.52392300  0.67269400  1
  N  1910  1  0.96238700  0.48422500  0.67827400  1
  N  1927  1  0.98685500  0.45680400  0.65543600  1
  N  1928  1  0.99773500  0.53875700  0.64541000  1
  N  1935  1  0.02845500  0.51892500  0.34826100  1
  N  1938  1  0.02774700  0.47910700  0.34089700  1
  N  1955  1  0.99494200  0.45523000  0.35666000  1
  N  1956  1  0.99108000  0.53782000  0.36503700  1
  N  1963  1  0.52806800  0.97439600  0.66178400  1
  N  1966  1  0.52757700  0.01422800  0.66908400  1
  N  1983  1  0.49491700  0.03824200  0.65328300  1
  N  1984  1  0.49074000  0.95565500  0.64482700  1
  N  1991  1  0.84416300  0.38325700  0.86288800  1
  N  1994  1  0.88577900  0.39138500  0.87084000  1
  N  2011  1  0.90802100  0.37008600  0.89975700  1
  N  2012  1  0.82234300  0.35416100  0.88417500  1
  N  2019  1  0.34430300  0.11056600  0.14725800  1
  N  2022  1  0.38591900  0.10249200  0.13925100  1
  N  2039  1  0.40805700  0.12373900  0.11025600  1
  N  2040  1  0.32237300  0.13956000  0.12590400  1
  N  2047  1  0.09343300  0.38854700  0.14126500  1
  N  2050  1  0.13545100  0.38163300  0.14846600  1
  N  2067  1  0.15734700  0.35171100  0.12817800  1
  N  2068  1  0.07151600  0.36701800  0.11238800  1
  N  2075  1  0.59333900  0.10536100  0.86869200  1
  N  2078  1  0.63537300  0.11219900  0.86149600  1
  N  2095  1  0.65734100  0.14205400  0.88183800  1
  N  2096  1  0.57149500  0.12685800  0.89763700  1
  N  2103  1  0.13884500  0.60033400  0.14021200  1
  N  2106  1  0.09699500  0.59381500  0.13168500  1
  N  2123  1  0.07234400  0.62310200  0.11339600  1
  N  2124  1  0.15794200  0.63712000  0.13128600  1
  N  2131  1  0.63892100  0.89345100  0.86980700  1
  N  2134  1  0.59705300  0.89994400  0.87827200  1
  N  2151  1  0.57237600  0.87062800  0.89647700  1
  N  2152  1  0.65800400  0.85665200  0.87866100  1
  N  2159  1  0.88980300  0.60361400  0.86459100  1
  N  2162  1  0.84909400  0.61233700  0.85374700  1
  N  2179  1  0.82523000  0.64071800  0.87492500  1
  N  2180  1  0.90960000  0.62377400  0.89580000  1
  N  2187  1  0.38975300  0.89020400  0.14529600  1
  N  2190  1  0.34904900  0.88145100  0.15613500  1
  N  2207  1  0.32521400  0.85304300  0.13496700  1
  N  2208  1  0.40958700  0.87002800  0.11410600  1
  N  2215  1  0.33932000  0.88559200  0.36284800  1
  N  2218  1  0.37990500  0.89796500  0.36999600  1
  N  2235  1  0.40542000  0.87844700  0.39862900  1
  N  2236  1  0.32110900  0.85528200  0.38480600  1
  N  2243  1  0.83936000  0.60827300  0.64703900  1
  N  2246  1  0.87990900  0.59582800  0.63983900  1
  N  2263  1  0.90543400  0.61533400  0.61119700  1
  N  2264  1  0.82114900  0.63857000  0.62507500  1
  N  2271  1  0.59198400  0.88732500  0.64378700  1
  N  2274  1  0.63368800  0.88012800  0.65216800  1
  N  2291  1  0.65782100  0.85445200  0.62801700  1
  N  2292  1  0.57221700  0.87002500  0.61128900  1
  N  2299  1  0.09224000  0.60600500  0.36630000  1
  N  2302  1  0.13391100  0.61343900  0.35799400  1
  N  2319  1  0.15773900  0.63946600  0.38197300  1
  N  2320  1  0.07214100  0.62367200  0.39848400  1
  N  2327  1  0.63919500  0.10017600  0.63402500  1
  N  2330  1  0.59721100  0.09383000  0.62576800  1
  N  2347  1  0.57153700  0.12444100  0.61172500  1
  N  2348  1  0.65717600  0.13817500  0.62924200  1
  N  2355  1  0.13916100  0.39367000  0.37597700  1
  N  2358  1  0.09717700  0.40000200  0.38424600  1
  N  2375  1  0.07148300  0.36934100  0.39817300  1
  N  2376  1  0.15715100  0.35567100  0.38073500  1
  N  2383  1  0.38847500  0.11568900  0.35827100  1
  N  2386  1  0.34627600  0.12287200  0.35199400  1
  N  2403  1  0.32087200  0.13874500  0.38194700  1
  N  2404  1  0.40676700  0.12214600  0.39583400  1
  N  2411  1  0.88851200  0.37801400  0.65170100  1
  N  2414  1  0.84630500  0.37086200  0.65797300  1
  N  2431  1  0.82088000  0.35505000  0.62800500  1
  N  2432  1  0.90678600  0.37158600  0.61412100  1
  N  2439  1  0.02001900  0.40453500  0.02245700  1
  N  2442  1  0.01401500  0.40479700  0.98230400  1
  N  2459  1  0.98153400  0.37824600  0.96390100  1
  N  2460  1  0.99620200  0.37678300  0.04775600  1
  N  2467  1  0.52001800  0.08929900  0.98747000  1
  N  2470  1  0.51403100  0.08902100  0.02762400  1
  N  2487  1  0.48153100  0.11553700  0.04604600  1
  N  2488  1  0.49617900  0.11703200  0.96218800  1
  N  2495  1  0.27006800  0.22842700  0.16288200  1
  N  2498  1  0.26368800  0.26855000  0.16289100  1
  N  2515  1  0.23082200  0.28647700  0.13648100  1
  N  2516  1  0.24621800  0.20275700  0.13552500  1
  N  2523  1  0.77002900  0.26532300  0.84717300  1
  N  2526  1  0.76366900  0.22520000  0.84715200  1
  N  2543  1  0.73081800  0.20724900  0.87356200  1
  N  2544  1  0.74619100  0.29097700  0.87453000  1
  N  2551  1  0.96154000  0.59101400  0.98752900  1
  N  2554  1  0.96738100  0.59066100  0.02768200  1
  N  2571  1  0.99950600  0.61744000  0.04630900  1
  N  2572  1  0.98500300  0.61911800  0.96246700  1
  N  2579  1  0.46158400  0.90267800  0.02238300  1
  N  2582  1  0.46743100  0.90307200  0.98223300  1
  N  2599  1  0.49960100  0.87635600  0.96357900  1
  N  2600  1  0.48506800  0.87461700  0.04743500  1
  N  2607  1  0.71031800  0.76559500  0.84526300  1
  N  2610  1  0.71701500  0.72552000  0.84455400  1
  N  2627  1  0.75089500  0.70741700  0.86968700  1
  N  2628  1  0.73466100  0.79107300  0.87231400  1
  N  2635  1  0.21027500  0.72814200  0.16465000  1
  N  2638  1  0.21698000  0.76821400  0.16535500  1
  N  2655  1  0.25086800  0.78631000  0.14022500  1
  N  2656  1  0.23461000  0.70265200  0.13762500  1
  N  2663  1  0.52023600  0.90614700  0.52216800  1
  N  2666  1  0.51370300  0.90693400  0.48211100  1
  N  2683  1  0.47993200  0.88170500  0.46388700  1
  N  2684  1  0.49577300  0.87894900  0.54744500  1
  N  2691  1  0.02027200  0.58766200  0.48755600  1
  N  2694  1  0.01378000  0.58685900  0.52761500  1
  N  2711  1  0.97994400  0.61200000  0.54587500  1
  N  2712  1  0.99572400  0.61476100  0.46228400  1
  N  2719  1  0.76894300  0.72978400  0.65877100  1
  N  2722  1  0.76307300  0.76994300  0.65934100  1
  N  2739  1  0.73127300  0.78870400  0.63227000  1
  N  2740  1  0.74588600  0.70492200  0.63020600  1
  N  2747  1  0.26888000  0.76405900  0.35121900  1
  N  2750  1  0.26301000  0.72389900  0.35068100  1
  N  2767  1  0.23121100  0.70515700  0.37775600  1
  N  2768  1  0.24583500  0.78894600  0.37975200  1
  N  2775  1  0.46030400  0.09109800  0.48732600  1
  N  2778  1  0.46629800  0.09105300  0.52746900  1
  N  2795  1  0.49800400  0.11837900  0.54588700  1
  N  2796  1  0.48306200  0.11949200  0.46206300  1
  N  2803  1  0.96029200  0.40256900  0.52264400  1
  N  2806  1  0.96625700  0.40262100  0.48250000  1
  N  2823  1  0.99797800  0.37531800  0.46406100  1
  N  2824  1  0.98308100  0.37421500  0.54789600  1
  N  2831  1  0.21050900  0.26441300  0.34906400  1
  N  2834  1  0.21622500  0.22422500  0.34897900  1
  N  2851  1  0.24777700  0.20562600  0.37634600  1
  N  2852  1  0.23334600  0.28946700  0.37756200  1
  N  2859  1  0.71052400  0.22942000  0.66091200  1
  N  2862  1  0.71623000  0.26961000  0.66101000  1
  N  2879  1  0.74779800  0.28822500  0.63367200  1
  N  2880  1  0.73337500  0.20437100  0.63244500  1
