# generated using pymatgen
data_H17C18(NO)2
_symmetry_space_group_name_H-M   'P 1'
_cell_length_a   50.20250000
_cell_length_b   63.29065000
_cell_length_c   63.29060000
_cell_angle_alpha   119.99992160
_cell_angle_beta   90.00000000
_cell_angle_gamma   90.00000000
_symmetry_Int_Tables_number   1
_chemical_formula_structural   H17C18(NO)2
_chemical_formula_sum   'H816 C864 N96 O96'
_cell_volume   174154.65545265
_cell_formula_units_Z   48
loop_
 _symmetry_equiv_pos_site_id
 _symmetry_equiv_pos_as_xyz
  1  'x, y, z'
loop_
 _atom_site_type_symbol
 _atom_site_label
 _atom_site_symmetry_multiplicity
 _atom_site_fract_x
 _atom_site_fract_y
 _atom_site_fract_z
 _atom_site_occupancy
  H  7  1  0.87072500  0.64012400  0.07289800  1
  H  16  1  0.85781700  0.62042900  0.10521000  1
  H  19  1  0.82064000  0.70195500  0.14490200  1
  H  20  1  0.78806000  0.68035500  0.11091400  1
  H  21  1  0.92386300  0.71375400  0.12137400  1
  H  22  1  0.76738400  0.59553600  0.10554400  1
  H  27  1  0.81667100  0.56863800  0.08345000  1
  H  28  1  0.85227100  0.73645300  0.15296600  1
  H  29  1  0.92719300  0.67532200  0.07517900  1
  H  30  1  0.75635100  0.64196100  0.07703700  1
  H  37  1  0.87072700  0.39779500  0.35165700  1
  H  46  1  0.85781000  0.44979200  0.37135000  1
  H  49  1  0.82062800  0.40796300  0.28982500  1
  H  50  1  0.78805100  0.39556200  0.31141900  1
  H  51  1  0.92386800  0.37265800  0.27803200  1
  H  52  1  0.76737600  0.47501600  0.39624600  1
  H  57  1  0.81668600  0.47979300  0.42314200  1
  H  58  1  0.85226600  0.38155800  0.25533200  1
  H  59  1  0.92720400  0.36488700  0.31645600  1
  H  60  1  0.75634500  0.40008300  0.34981200  1
  H  67  1  0.87071400  0.91888400  0.59401100  1
  H  76  1  0.85778700  0.88654800  0.54198000  1
  H  79  1  0.82061200  0.84688400  0.58382900  1
  H  80  1  0.78805800  0.88089800  0.59625100  1
  H  81  1  0.92384300  0.87039600  0.61915600  1
  H  82  1  0.76734600  0.88626100  0.51680400  1
  H  87  1  0.81669800  0.90835600  0.51199400  1
  H  88  1  0.85224400  0.83878200  0.61023600  1
  H  89  1  0.92718600  0.91658800  0.62691200  1
  H  90  1  0.75633900  0.91476700  0.59173500  1
  H  97  1  0.37071100  0.33105900  0.93945400  1
  H  106  1  0.35780700  0.35076100  0.90715000  1
  H  109  1  0.32061800  0.26922500  0.86745400  1
  H  110  1  0.28804200  0.29083500  0.90144300  1
  H  111  1  0.42384400  0.25742900  0.89098100  1
  H  112  1  0.26737800  0.37566400  0.90682500  1
  H  117  1  0.31670000  0.40255700  0.92895900  1
  H  118  1  0.35225000  0.23472700  0.85937200  1
  H  119  1  0.42717800  0.29585900  0.93717000  1
  H  120  1  0.25634000  0.32923200  0.93532400  1
  H  127  1  0.37073100  0.57341300  0.66071700  1
  H  136  1  0.35781700  0.52140800  0.64101900  1
  H  139  1  0.32064800  0.56324100  0.72255000  1
  H  140  1  0.28806600  0.57563200  0.70095300  1
  H  141  1  0.42387200  0.59855900  0.73434400  1
  H  142  1  0.26738400  0.49619100  0.61612500  1
  H  147  1  0.31669800  0.49141400  0.58922800  1
  H  148  1  0.35228200  0.58967300  0.75704600  1
  H  149  1  0.42720000  0.60632900  0.69591600  1
  H  150  1  0.25635600  0.57112400  0.66256500  1
  H  157  1  0.37074700  0.05231600  0.41837600  1
  H  166  1  0.35782500  0.08462900  0.47038000  1
  H  169  1  0.32064000  0.12431500  0.42854800  1
  H  170  1  0.28807600  0.09030600  0.41613300  1
  H  171  1  0.42387800  0.10080100  0.39322800  1
  H  172  1  0.26738600  0.08494500  0.49558700  1
  H  177  1  0.31667400  0.06286400  0.50040500  1
  H  178  1  0.35227400  0.13240100  0.40213600  1
  H  179  1  0.42721600  0.05460700  0.38546000  1
  H  180  1  0.25637600  0.05642200  0.42065000  1
  H  187  1  0.99863800  0.57264300  0.93930100  1
  H  196  1  0.01168500  0.52100900  0.90686600  1
  H  199  1  0.04823700  0.56386500  0.86761600  1
  H  200  1  0.08114400  0.57554800  0.90124400  1
  H  201  1  0.94459100  0.59768500  0.89119200  1
  H  202  1  0.10225000  0.49603400  0.90640000  1
  H  207  1  0.05315300  0.49101100  0.92847200  1
  H  208  1  0.01617700  0.59070600  0.86042400  1
  H  209  1  0.94091700  0.60321200  0.93708700  1
  H  210  1  0.11295700  0.57102600  0.93501500  1
  H  217  1  0.99862800  0.05247900  0.66011300  1
  H  226  1  0.01165900  0.08489300  0.64091200  1
  H  229  1  0.04822900  0.12415500  0.72303200  1
  H  230  1  0.08114400  0.09054600  0.70107000  1
  H  231  1  0.94459000  0.10057200  0.73327000  1
  H  232  1  0.10221900  0.08538800  0.61639400  1
  H  237  1  0.05316700  0.06331800  0.58930600  1
  H  238  1  0.01616900  0.13132300  0.75705900  1
  H  239  1  0.94091800  0.05468100  0.69291300  1
  H  240  1  0.11293500  0.05675700  0.66275600  1
  H  247  1  0.99864400  0.33168500  0.41915200  1
  H  256  1  0.01167100  0.35088500  0.47075800  1
  H  259  1  0.04822100  0.26876200  0.42791900  1
  H  260  1  0.08115800  0.29071500  0.41627500  1
  H  261  1  0.94458700  0.25853600  0.39410000  1
  H  262  1  0.10222900  0.37540200  0.49578400  1
  H  267  1  0.05316300  0.40248900  0.50077100  1
  H  268  1  0.01615700  0.23474000  0.40103700  1
  H  269  1  0.94092500  0.29889600  0.38855700  1
  H  270  1  0.11296300  0.32901300  0.42079400  1
  H  277  1  0.49862700  0.39854900  0.07305200  1
  H  286  1  0.51166800  0.45015300  0.10546100  1
  H  289  1  0.54822600  0.40731300  0.14473600  1
  H  290  1  0.58115100  0.39564600  0.11112100  1
  H  291  1  0.44457400  0.37351100  0.12116200  1
  H  292  1  0.60222900  0.47516500  0.10595700  1
  H  297  1  0.55315800  0.48016200  0.08386400  1
  H  298  1  0.51615800  0.38046000  0.15190300  1
  H  299  1  0.44090300  0.36796200  0.07526100  1
  H  300  1  0.61294800  0.40017100  0.07734200  1
  H  307  1  0.49865700  0.91872100  0.35226100  1
  H  316  1  0.51170000  0.88628500  0.37145900  1
  H  319  1  0.54825400  0.84703500  0.28935400  1
  H  320  1  0.58116300  0.88065800  0.31130100  1
  H  321  1  0.44461000  0.87061800  0.27911000  1
  H  322  1  0.60226100  0.88581200  0.39597300  1
  H  327  1  0.55316000  0.90788700  0.42306600  1
  H  328  1  0.51619600  0.83984400  0.25532000  1
  H  329  1  0.44093900  0.91651100  0.31947900  1
  H  330  1  0.61297800  0.91442600  0.34959700  1
  H  337  1  0.49864500  0.63952600  0.59322400  1
  H  346  1  0.51167000  0.62032500  0.54161700  1
  H  349  1  0.54823400  0.70245600  0.58446900  1
  H  350  1  0.58116300  0.68049000  0.59610400  1
  H  351  1  0.44459400  0.71267500  0.61828200  1
  H  352  1  0.60222500  0.59580600  0.51658700  1
  H  357  1  0.55315200  0.56872000  0.51161300  1
  H  358  1  0.51617000  0.73647400  0.61132300  1
  H  359  1  0.44092700  0.67231700  0.62381300  1
  H  360  1  0.61296200  0.64218600  0.59157800  1
  H  367  1  0.99865600  0.33040300  0.93946200  1
  H  376  1  0.01140400  0.34997300  0.90708400  1
  H  379  1  0.04866500  0.26844800  0.86755600  1
  H  380  1  0.08136700  0.29022300  0.90150800  1
  H  381  1  0.94518200  0.25707700  0.89093500  1
  H  382  1  0.10176600  0.37491500  0.90652400  1
  H  387  1  0.05234700  0.40184800  0.92892900  1
  H  388  1  0.01678100  0.23401100  0.85915800  1
  H  389  1  0.94197200  0.29552500  0.93719000  1
  H  390  1  0.11295900  0.32921300  0.93568800  1
  H  397  1  0.99866000  0.57405300  0.66137300  1
  H  406  1  0.01142400  0.52210800  0.64181100  1
  H  409  1  0.04868100  0.56410300  0.72332900  1
  H  410  1  0.08137300  0.57631000  0.70156500  1
  H  411  1  0.94518400  0.59884500  0.73469600  1
  H  412  1  0.10179600  0.49661800  0.61689200  1
  H  417  1  0.05241800  0.49205000  0.58994600  1
  H  418  1  0.01679500  0.59011800  0.75776200  1
  H  419  1  0.94197000  0.60665100  0.69625200  1
  H  420  1  0.11296700  0.57149000  0.66257400  1
  H  427  1  0.99866800  0.05234000  0.41775200  1
  H  436  1  0.01147800  0.08480300  0.46976200  1
  H  439  1  0.04869700  0.12423200  0.42770800  1
  H  440  1  0.08133100  0.09020700  0.41541900  1
  H  441  1  0.94520500  0.10087200  0.39294900  1
  H  442  1  0.10188600  0.08531800  0.49513100  1
  H  447  1  0.05254800  0.06306500  0.49985600  1
  H  448  1  0.01681400  0.13265900  0.40168800  1
  H  449  1  0.94198400  0.05462100  0.38516200  1
  H  450  1  0.11295500  0.05604000  0.42024600  1
  H  457  1  0.49866900  0.64079600  0.07292400  1
  H  466  1  0.51142100  0.62123400  0.10532400  1
  H  469  1  0.54868000  0.70275800  0.14482600  1
  H  470  1  0.58136600  0.68098100  0.11086100  1
  H  471  1  0.44519900  0.71412900  0.12143600  1
  H  472  1  0.60178900  0.59632400  0.10591100  1
  H  477  1  0.55240700  0.56938600  0.08350500  1
  H  478  1  0.51679700  0.73718800  0.15322300  1
  H  479  1  0.44198600  0.67567100  0.07519100  1
  H  480  1  0.61296200  0.64198000  0.07669000  1
  H  487  1  0.49865700  0.39714100  0.35099200  1
  H  496  1  0.51141700  0.44909600  0.37056100  1
  H  499  1  0.54866600  0.40709700  0.28903900  1
  H  500  1  0.58136000  0.39489900  0.31080300  1
  H  501  1  0.44518300  0.37234300  0.27766400  1
  H  502  1  0.60178900  0.47457700  0.39548400  1
  H  507  1  0.55240700  0.47914300  0.42242700  1
  H  508  1  0.51678300  0.38105800  0.25460200  1
  H  509  1  0.44197200  0.36453800  0.31611600  1
  H  510  1  0.61295600  0.39970600  0.34979100  1
  H  517  1  0.49864700  0.91887400  0.59465600  1
  H  526  1  0.51140100  0.88650000  0.54271700  1
  H  529  1  0.54866800  0.84696800  0.58471000  1
  H  530  1  0.58136800  0.88092600  0.59689300  1
  H  531  1  0.44517500  0.87034400  0.61945400  1
  H  532  1  0.60176300  0.88593400  0.51720900  1
  H  537  1  0.55234100  0.90834600  0.51268700  1
  H  538  1  0.51678100  0.83855900  0.61073400  1
  H  539  1  0.44196000  0.91659600  0.62726000  1
  H  540  1  0.61295600  0.91509800  0.59207700  1
  H  547  1  0.87070100  0.39790200  0.07310800  1
  H  556  1  0.85779700  0.44952500  0.10566200  1
  H  559  1  0.82122400  0.40650100  0.14472700  1
  H  560  1  0.78821200  0.39495700  0.11109200  1
  H  561  1  0.92511900  0.37323300  0.12125000  1
  H  562  1  0.76727500  0.47469500  0.10631800  1
  H  567  1  0.81647300  0.47953500  0.08400700  1
  H  568  1  0.85359200  0.38006300  0.15227800  1
  H  569  1  0.92860600  0.36762100  0.07529500  1
  H  570  1  0.75649200  0.39975900  0.07698400  1
  H  577  1  0.87070900  0.91869300  0.35153400  1
  H  586  1  0.85787100  0.88621400  0.37062100  1
  H  589  1  0.82124500  0.84706500  0.28848300  1
  H  590  1  0.78817200  0.88062800  0.31062900  1
  H  591  1  0.92512400  0.87056400  0.27872100  1
  H  592  1  0.76739600  0.88549400  0.39521600  1
  H  597  1  0.81668700  0.90798700  0.42231500  1
  H  598  1  0.85361300  0.83956300  0.25451200  1
  H  599  1  0.92860900  0.91651600  0.31905200  1
  H  600  1  0.75648600  0.91474100  0.34954200  1
  H  607  1  0.87069900  0.64023100  0.59390500  1
  H  616  1  0.85784700  0.62114000  0.54233700  1
  H  619  1  0.82124200  0.70326800  0.58531100  1
  H  620  1  0.78817000  0.68114700  0.59675900  1
  H  621  1  0.92512300  0.71304000  0.61857800  1
  H  622  1  0.76736000  0.59655600  0.51705100  1
  H  627  1  0.81660600  0.56944100  0.51237100  1
  H  628  1  0.85360700  0.73724800  0.61177400  1
  H  629  1  0.92860100  0.67271000  0.62420900  1
  H  630  1  0.75647600  0.64224300  0.59197400  1
  H  637  1  0.37070700  0.57332700  0.93927900  1
  H  646  1  0.35784700  0.52177000  0.90681100  1
  H  649  1  0.32123300  0.56473300  0.86764500  1
  H  650  1  0.28816100  0.57618800  0.90122100  1
  H  651  1  0.42512700  0.59798500  0.89113100  1
  H  652  1  0.26736400  0.49647500  0.90610200  1
  H  657  1  0.31661600  0.49180500  0.92854700  1
  H  658  1  0.35360200  0.59118300  0.86011700  1
  H  659  1  0.42861200  0.60362300  0.93709100  1
  H  660  1  0.25647200  0.57139700  0.93533100  1
  H  667  1  0.37069100  0.05251900  0.66080100  1
  H  676  1  0.35779100  0.08507300  0.64173200  1
  H  679  1  0.32121500  0.12413800  0.72382100  1
  H  680  1  0.28820100  0.09050600  0.70172900  1
  H  681  1  0.42510900  0.10065700  0.73361400  1
  H  682  1  0.26727000  0.08573600  0.61721800  1
  H  687  1  0.31647100  0.06342000  0.59006700  1
  H  688  1  0.35358200  0.13168600  0.75781100  1
  H  689  1  0.42859500  0.05470200  0.69326700  1
  H  690  1  0.25648200  0.05640000  0.66281900  1
  H  697  1  0.37069700  0.33095700  0.41845800  1
  H  706  1  0.35784900  0.35004100  0.47003300  1
  H  709  1  0.32123500  0.26791000  0.42703600  1
  H  710  1  0.28817100  0.29004200  0.41559700  1
  H  711  1  0.42512100  0.25814800  0.39377600  1
  H  712  1  0.26736600  0.37460900  0.49532800  1
  H  717  1  0.31661000  0.40172200  0.49998200  1
  H  718  1  0.35360600  0.23393700  0.40058000  1
  H  719  1  0.42860100  0.29848200  0.38816000  1
  H  720  1  0.25647800  0.32895700  0.42040100  1
  H  728  1  0.90319200  0.79695400  0.16378900  1
  H  729  1  0.88090200  0.77251400  0.15133700  1
  H  730  1  0.91521500  0.76757500  0.15409900  1
  H  732  1  0.90108700  0.84362900  0.22801000  1
  H  733  1  0.88552800  0.83096500  0.19947800  1
  H  734  1  0.92001700  0.82587900  0.20190000  1
  H  736  1  0.87816600  0.72015300  0.19165800  1
  H  737  1  0.85842900  0.73716900  0.21749200  1
  H  738  1  0.89317800  0.73389700  0.22039900  1
  H  740  1  0.87904200  0.80072600  0.27188400  1
  H  741  1  0.89339200  0.77171700  0.25809500  1
  H  742  1  0.85869300  0.77525700  0.25523800  1
  H  752  1  0.90315300  0.33185900  0.19481400  1
  H  753  1  0.88087000  0.34385400  0.21926100  1
  H  754  1  0.91518900  0.35153500  0.22419300  1
  H  756  1  0.90103300  0.34942100  0.14815200  1
  H  757  1  0.88547100  0.33356000  0.16082200  1
  H  758  1  0.91996700  0.34103900  0.16588200  1
  H  760  1  0.87821400  0.43653800  0.27164900  1
  H  761  1  0.85848400  0.44537700  0.25464600  1
  H  762  1  0.89323900  0.45153100  0.25790700  1
  H  764  1  0.87909000  0.43621900  0.19108900  1
  H  765  1  0.89345400  0.45142000  0.22009400  1
  H  766  1  0.85874800  0.44505100  0.21656500  1
  H  776  1  0.90314400  0.82798000  0.65994500  1
  H  777  1  0.88086100  0.84043100  0.64794900  1
  H  778  1  0.91518000  0.83768200  0.64026800  1
  H  780  1  0.90105700  0.76375100  0.64237300  1
  H  781  1  0.88548400  0.79227600  0.65824000  1
  H  782  1  0.91997800  0.78986900  0.65075500  1
  H  784  1  0.87819800  0.80013800  0.55526700  1
  H  785  1  0.85846500  0.77429900  0.54643200  1
  H  786  1  0.89321800  0.77140100  0.54027200  1
  H  788  1  0.87907100  0.71989700  0.55558400  1
  H  789  1  0.89343200  0.73369800  0.54038000  1
  H  790  1  0.85872800  0.73654300  0.54675700  1
  H  800  1  0.40314200  0.17421400  0.84855300  1
  H  801  1  0.38085600  0.19865900  0.86100400  1
  H  802  1  0.41517500  0.20359400  0.85826000  1
  H  804  1  0.40102000  0.12755400  0.78432700  1
  H  805  1  0.38545900  0.14022200  0.81285700  1
  H  806  1  0.41995600  0.14528200  0.81043900  1
  H  808  1  0.37820700  0.25105400  0.82071600  1
  H  809  1  0.35847900  0.23405200  0.79487100  1
  H  810  1  0.39323400  0.23731400  0.79198300  1
  H  812  1  0.37909100  0.17049800  0.74047000  1
  H  813  1  0.39345300  0.19950300  0.75427700  1
  H  814  1  0.35874700  0.19597200  0.75711400  1
  H  824  1  0.40318900  0.63934000  0.81755100  1
  H  825  1  0.38090000  0.62735400  0.79311100  1
  H  826  1  0.41521300  0.61965300  0.78816900  1
  H  828  1  0.40106000  0.62178700  0.86422100  1
  H  829  1  0.38550700  0.63765400  0.85155200  1
  H  830  1  0.41999900  0.63015400  0.84648000  1
  H  832  1  0.37818100  0.53467000  0.74073300  1
  H  833  1  0.35844700  0.52584500  0.75774600  1
  H  834  1  0.39319800  0.51967200  0.75447400  1
  H  836  1  0.37906100  0.53500100  0.82130000  1
  H  837  1  0.39341300  0.51978900  0.79229100  1
  H  838  1  0.35871200  0.52617800  0.79583000  1
  H  848  1  0.40317000  0.14320800  0.35242600  1
  H  849  1  0.38088800  0.13075700  0.36442400  1
  H  850  1  0.41520700  0.13351400  0.37210900  1
  H  852  1  0.40106800  0.20743200  0.36998300  1
  H  853  1  0.38550100  0.17890300  0.35412000  1
  H  854  1  0.41999500  0.18131800  0.36160900  1
  H  856  1  0.37821300  0.17106800  0.45710800  1
  H  857  1  0.35847700  0.19690400  0.46593600  1
  H  858  1  0.39322800  0.19980700  0.47209900  1
  H  860  1  0.37907300  0.25130000  0.45677000  1
  H  861  1  0.39343700  0.23750500  0.47198000  1
  H  862  1  0.35873400  0.23465400  0.46560100  1
  H  872  1  0.96527700  0.63912900  0.84888100  1
  H  873  1  0.98787500  0.62746100  0.86142700  1
  H  874  1  0.95371300  0.61921900  0.85844200  1
  H  876  1  0.96972800  0.62230900  0.78494900  1
  H  877  1  0.98440500  0.63790400  0.81387400  1
  H  878  1  0.94988200  0.63038500  0.81050400  1
  H  880  1  0.99127400  0.53454700  0.82074500  1
  H  881  1  0.01102000  0.52587200  0.79495200  1
  H  882  1  0.97628600  0.51962300  0.79198500  1
  H  884  1  0.99041900  0.53527000  0.74070900  1
  H  885  1  0.97605400  0.51997300  0.75440600  1
  H  886  1  0.01076500  0.52631700  0.75725800  1
  H  896  1  0.96524000  0.14290300  0.81702100  1
  H  897  1  0.98784600  0.13035000  0.79281400  1
  H  898  1  0.95368900  0.13334400  0.78754700  1
  H  900  1  0.96969600  0.20683600  0.86413100  1
  H  901  1  0.98436300  0.17790800  0.85080900  1
  H  902  1  0.94984600  0.18128600  0.84664500  1
  H  904  1  0.99131500  0.17102600  0.74057800  1
  H  905  1  0.01106800  0.19681500  0.75770300  1
  H  906  1  0.97633900  0.19979200  0.75440900  1
  H  908  1  0.99046400  0.25106500  0.82133400  1
  H  909  1  0.97610800  0.23737000  0.79233600  1
  H  910  1  0.01081500  0.23450600  0.79583900  1
  H  920  1  0.96522800  0.17478300  0.35269400  1
  H  921  1  0.98784300  0.19898300  0.36433500  1
  H  922  1  0.95369100  0.20425900  0.37261300  1
  H  924  1  0.96973200  0.12766600  0.36950300  1
  H  925  1  0.98437900  0.14099900  0.35389900  1
  H  926  1  0.94986300  0.14514900  0.36144700  1
  H  928  1  0.99135000  0.25121800  0.45725000  1
  H  929  1  0.01110000  0.23408900  0.46591000  1
  H  930  1  0.97637200  0.23739000  0.47218700  1
  H  932  1  0.99048300  0.17046200  0.45653100  1
  H  933  1  0.97613500  0.19946200  0.47183800  1
  H  934  1  0.01083900  0.19595200  0.46546600  1
  H  944  1  0.46523000  0.33208600  0.16349300  1
  H  945  1  0.48783700  0.34373700  0.15093600  1
  H  946  1  0.45368100  0.35200200  0.15393500  1
  H  948  1  0.46969600  0.34890900  0.22742500  1
  H  949  1  0.48435900  0.33333333  0.19852733  1
  H  950  1  0.44984200  0.34084700  0.20187800  1
  H  952  1  0.49132000  0.43664700  0.19161200  1
  H  953  1  0.51107600  0.44531000  0.21739900  1
  H  954  1  0.47634700  0.45158600  0.22038000  1
  H  956  1  0.49047200  0.43593300  0.27165100  1
  H  957  1  0.47611800  0.45123700  0.25795900  1
  H  958  1  0.51082300  0.44486600  0.25509100  1
  H  968  1  0.46528400  0.82831000  0.19535700  1
  H  969  1  0.48788000  0.84085600  0.21957200  1
  H  970  1  0.45371900  0.83786800  0.22482700  1
  H  972  1  0.46971600  0.76437800  0.14824400  1
  H  973  1  0.48439700  0.79330000  0.16156900  1
  H  974  1  0.44987400  0.78993600  0.16573100  1
  H  976  1  0.49129700  0.80016600  0.27179500  1
  H  977  1  0.51104500  0.77437400  0.25467300  1
  H  978  1  0.47631100  0.77140500  0.25795800  1
  H  980  1  0.49044000  0.72013500  0.19103400  1
  H  981  1  0.47607800  0.73382900  0.22002800  1
  H  982  1  0.51078800  0.73668500  0.21653300  1
  H  992  1  0.46524800  0.79643400  0.65972000  1
  H  993  1  0.48785400  0.77222400  0.64806000  1
  H  994  1  0.45369500  0.76696000  0.63980600  1
  H  996  1  0.46970400  0.84354700  0.64290200  1
  H  997  1  0.48437500  0.83021900  0.65850100  1
  H  998  1  0.44985400  0.82606300  0.65097000  1
  H  1000  1  0.49129300  0.71999500  0.55514600  1
  H  1001  1  0.51104100  0.73711800  0.54647700  1
  H  1002  1  0.47630700  0.73382800  0.54021700  1
  H  1004  1  0.49043000  0.80075300  0.55586900  1
  H  1005  1  0.47607200  0.77175600  0.54056800  1
  H  1006  1  0.51078200  0.77525700  0.54692500  1
  H  1016  1  0.70435400  0.69183800  0.14229600  1
  H  1017  1  0.72890600  0.68124600  0.11970100  1
  H  1018  1  0.72760100  0.67050900  0.14076400  1
  H  1020  1  0.63426700  0.67539700  0.12897300  1
  H  1021  1  0.66122000  0.69244500  0.12820900  1
  H  1022  1  0.66105100  0.68098400  0.14881500  1
  H  1024  1  0.73481200  0.59126600  0.05962800  1
  H  1025  1  0.70768000  0.58495500  0.04030500  1
  H  1026  1  0.70830600  0.57427700  0.06148100  1
  H  1028  1  0.63372400  0.59213000  0.05969100  1
  H  1029  1  0.65973400  0.57473900  0.06161900  1
  H  1030  1  0.66093900  0.58533800  0.04039400  1
  H  1040  1  0.70433800  0.41548200  0.29994900  1
  H  1041  1  0.72889400  0.40347600  0.31053200  1
  H  1042  1  0.72758300  0.43527700  0.32127900  1
  H  1044  1  0.63425300  0.41859200  0.31639600  1
  H  1045  1  0.66120600  0.40078400  0.29934200  1
  H  1046  1  0.66103300  0.43285300  0.31081300  1
  H  1048  1  0.73481400  0.43335600  0.40050500  1
  H  1049  1  0.70768800  0.42033300  0.40681200  1
  H  1050  1  0.70830400  0.45219000  0.41750200  1
  H  1052  1  0.63372600  0.43253900  0.39965000  1
  H  1053  1  0.65973400  0.45185900  0.41704300  1
  H  1054  1  0.66094700  0.42003200  0.40643300  1
  H  1064  1  0.70432800  0.84947800  0.57629500  1
  H  1065  1  0.72887800  0.87207200  0.58831700  1
  H  1066  1  0.72758100  0.85102700  0.55651300  1
  H  1068  1  0.63424400  0.86279600  0.57315300  1
  H  1069  1  0.66118400  0.86354800  0.59097100  1
  H  1070  1  0.66103500  0.84296400  0.55890000  1
  H  1072  1  0.73480800  0.93219900  0.55848100  1
  H  1073  1  0.70767000  0.95151600  0.57149000  1
  H  1074  1  0.70831200  0.93035800  0.53963400  1
  H  1076  1  0.63372000  0.93212400  0.55923700  1
  H  1077  1  0.65974200  0.93021600  0.53993900  1
  H  1078  1  0.66092900  0.95142300  0.57177000  1
  H  1088  1  0.20432500  0.27937000  0.87006400  1
  H  1089  1  0.22888300  0.28995300  0.89265200  1
  H  1090  1  0.22757300  0.30069900  0.87159800  1
  H  1092  1  0.13424300  0.29582500  0.88340100  1
  H  1093  1  0.16119200  0.27876900  0.88415500  1
  H  1094  1  0.16102400  0.29024000  0.86355800  1
  H  1096  1  0.23481300  0.37992500  0.95274500  1
  H  1097  1  0.20768700  0.38623400  0.97207300  1
  H  1098  1  0.20830700  0.39692500  0.95090800  1
  H  1100  1  0.13372500  0.37907900  0.95271100  1
  H  1101  1  0.15973600  0.39647100  0.95078400  1
  H  1102  1  0.16094700  0.38586000  0.97200000  1
  H  1112  1  0.20434700  0.55572400  0.71242500  1
  H  1113  1  0.22890300  0.56773000  0.70184000  1
  H  1114  1  0.22759700  0.53593000  0.69109500  1
  H  1116  1  0.13426500  0.55260600  0.69597500  1
  H  1117  1  0.16121400  0.57041600  0.71302900  1
  H  1118  1  0.16104600  0.53834800  0.70155900  1
  H  1120  1  0.23482300  0.53785400  0.61186900  1
  H  1121  1  0.20769300  0.55086900  0.60556000  1
  H  1122  1  0.20831900  0.51901200  0.59487000  1
  H  1124  1  0.13373500  0.53865000  0.61271800  1
  H  1125  1  0.15975000  0.51933600  0.59532700  1
  H  1126  1  0.16095300  0.55116300  0.60593700  1
  H  1136  1  0.20436900  0.12167700  0.43601000  1
  H  1137  1  0.22893300  0.09909300  0.42402100  1
  H  1138  1  0.22760300  0.12015200  0.45582000  1
  H  1140  1  0.13428300  0.10831800  0.43907500  1
  H  1141  1  0.16125100  0.10757200  0.42128700  1
  H  1142  1  0.16105000  0.12817400  0.45335300  1
  H  1144  1  0.23482900  0.03902300  0.45393600  1
  H  1145  1  0.20770900  0.01968600  0.44090400  1
  H  1146  1  0.20830500  0.04086200  0.47275800  1
  H  1148  1  0.13374100  0.03903900  0.45306500  1
  H  1149  1  0.15973600  0.04098500  0.47240500  1
  H  1150  1  0.16097100  0.01975600  0.44058400  1
  H  1160  1  0.16502200  0.55567700  0.86971800  1
  H  1161  1  0.14045200  0.56767300  0.89229600  1
  H  1162  1  0.14179600  0.53586900  0.87125800  1
  H  1164  1  0.23511000  0.55258200  0.88306300  1
  H  1165  1  0.20815500  0.57036900  0.88378400  1
  H  1166  1  0.20833500  0.53829600  0.86321800  1
  H  1168  1  0.13456000  0.53793500  0.95249400  1
  H  1169  1  0.16169200  0.55096900  0.97180700  1
  H  1170  1  0.16106600  0.51910400  0.95067400  1
  H  1172  1  0.23564600  0.53874000  0.95243800  1
  H  1173  1  0.20963900  0.51942800  0.95053600  1
  H  1174  1  0.20842600  0.55126300  0.97172200  1
  H  1184  1  0.16499600  0.12202300  0.71275200  1
  H  1185  1  0.14041600  0.09945100  0.70214600  1
  H  1186  1  0.14178600  0.12050600  0.69140300  1
  H  1188  1  0.23508600  0.10864600  0.69633900  1
  H  1189  1  0.20811000  0.10792500  0.71338400  1
  H  1190  1  0.20833100  0.12851200  0.70190100  1
  H  1192  1  0.13455200  0.03931600  0.61218900  1
  H  1193  1  0.16167000  0.01998600  0.60590700  1
  H  1194  1  0.16107800  0.04113800  0.59519900  1
  H  1196  1  0.23563600  0.03932500  0.61309700  1
  H  1197  1  0.20965300  0.04126200  0.59568600  1
  H  1198  1  0.20840000  0.02005300  0.60630300  1
  H  1208  1  0.16501200  0.27904800  0.43609400  1
  H  1209  1  0.14044200  0.28964700  0.42411400  1
  H  1210  1  0.14179200  0.30039400  0.45591300  1
  H  1212  1  0.23510400  0.29547100  0.43916800  1
  H  1213  1  0.20813800  0.27842100  0.42138600  1
  H  1214  1  0.20833500  0.28990500  0.45345600  1
  H  1216  1  0.13457200  0.37959700  0.45391300  1
  H  1217  1  0.16170200  0.38588100  0.44087900  1
  H  1218  1  0.16108600  0.39659500  0.47274100  1
  H  1220  1  0.23565600  0.37871000  0.45307500  1
  H  1221  1  0.20966100  0.39612000  0.47240300  1
  H  1222  1  0.20843200  0.38549200  0.44057300  1
  H  1232  1  0.66499900  0.41545700  0.14260800  1
  H  1233  1  0.64042300  0.40348500  0.12003600  1
  H  1234  1  0.64179100  0.43528600  0.14108600  1
  H  1236  1  0.73509300  0.41848600  0.12923000  1
  H  1237  1  0.70811400  0.40072400  0.12851400  1
  H  1238  1  0.70833700  0.43279300  0.14909600  1
  H  1240  1  0.63456400  0.43329100  0.05988600  1
  H  1241  1  0.66168200  0.42024100  0.04055800  1
  H  1242  1  0.66108900  0.45210200  0.06170800  1
  H  1244  1  0.73564700  0.43239800  0.05990400  1
  H  1245  1  0.70966400  0.45174400  0.06183500  1
  H  1246  1  0.70841300  0.41991500  0.04062800  1
  H  1256  1  0.66503300  0.84913200  0.29964300  1
  H  1257  1  0.64046400  0.87171300  0.31023000  1
  H  1258  1  0.64180700  0.85067100  0.32099200  1
  H  1260  1  0.73512300  0.86246900  0.31607800  1
  H  1261  1  0.70816600  0.86319800  0.29901700  1
  H  1262  1  0.70834500  0.84262500  0.31051800  1
  H  1264  1  0.63458200  0.93189600  0.40017000  1
  H  1265  1  0.66171800  0.95120800  0.40645400  1
  H  1266  1  0.66108900  0.93006900  0.41717700  1
  H  1268  1  0.73566900  0.93183000  0.39930300  1
  H  1269  1  0.70966200  0.92992700  0.41671200  1
  H  1270  1  0.70845100  0.95111800  0.40607000  1
  H  1280  1  0.66502700  0.69214900  0.57627000  1
  H  1281  1  0.64045200  0.68155700  0.58825200  1
  H  1282  1  0.64180500  0.67080500  0.55645100  1
  H  1284  1  0.73511500  0.67571000  0.57318900  1
  H  1285  1  0.70815400  0.69276900  0.59097400  1
  H  1286  1  0.70834700  0.68127900  0.55890300  1
  H  1288  1  0.63456000  0.59161000  0.55846500  1
  H  1289  1  0.66168400  0.58532500  0.57150500  1
  H  1290  1  0.66107500  0.57460600  0.53964300  1
  H  1292  1  0.73564500  0.59248300  0.55931300  1
  H  1293  1  0.70965000  0.57507300  0.53998500  1
  H  1294  1  0.70841500  0.58570900  0.57181600  1
  H  1304  1  0.91184100  0.68708800  0.01374100  1
  H  1305  1  0.91901400  0.69204800  0.04302700  1
  H  1306  1  0.88915700  0.67720900  0.02782100  1
  H  1308  1  0.96193600  0.65067100  0.96796100  1
  H  1309  1  0.95492000  0.67660500  0.99577100  1
  H  1310  1  0.92907600  0.66173400  0.97399400  1
  H  1312  1  0.91597100  0.61475500  0.05015400  1
  H  1313  1  0.94614900  0.60007000  0.03777700  1
  H  1314  1  0.91579800  0.58793100  0.02179000  1
  H  1316  1  0.96693000  0.57442600  0.97002000  1
  H  1317  1  0.94034300  0.56915300  0.98448900  1
  H  1318  1  0.97073400  0.58149200  0.00031400  1
  H  1328  1  0.91185400  0.29168900  0.30470500  1
  H  1329  1  0.91903200  0.31601100  0.29973900  1
  H  1330  1  0.88917400  0.31564900  0.31458000  1
  H  1332  1  0.96195300  0.28233100  0.34112200  1
  H  1333  1  0.95493500  0.28420300  0.31518700  1
  H  1334  1  0.92909200  0.27729900  0.33006100  1
  H  1336  1  0.91599600  0.40043700  0.37702400  1
  H  1337  1  0.94617500  0.40274500  0.39170900  1
  H  1338  1  0.91582500  0.39890200  0.40385100  1
  H  1340  1  0.96695400  0.36063800  0.41736000  1
  H  1341  1  0.94036900  0.38038000  0.42263200  1
  H  1342  1  0.97075800  0.38386300  0.41028800  1
  H  1352  1  0.91184400  0.97804100  0.70012900  1
  H  1353  1  0.91901200  0.94875200  0.67580500  1
  H  1354  1  0.88915600  0.96396000  0.67617300  1
  H  1356  1  0.96194400  0.02381300  0.70947800  1
  H  1357  1  0.95492400  0.99600800  0.70761000  1
  H  1358  1  0.92908300  0.01778700  0.71451400  1
  H  1360  1  0.91596900  0.94160500  0.59137800  1
  H  1361  1  0.94614900  0.95397700  0.58906500  1
  H  1362  1  0.91580000  0.96996400  0.59290900  1
  H  1364  1  0.96693800  0.02173400  0.63116500  1
  H  1365  1  0.94034900  0.00726600  0.61142600  1
  H  1366  1  0.97073700  0.99143400  0.60794000  1
  H  1376  1  0.41183400  0.28410700  0.99861700  1
  H  1377  1  0.41900900  0.27914300  0.96932900  1
  H  1378  1  0.38915000  0.29398000  0.98453100  1
  H  1380  1  0.46193200  0.32052900  0.04439100  1
  H  1381  1  0.45491400  0.29459200  0.01658400  1
  H  1382  1  0.42907300  0.30946500  0.03836200  1
  H  1384  1  0.41596600  0.35642600  0.96218600  1
  H  1385  1  0.44614300  0.37111200  0.97456200  1
  H  1386  1  0.41579000  0.38325200  0.99054700  1
  H  1388  1  0.46692100  0.39676700  0.04232000  1
  H  1389  1  0.44033500  0.40203600  0.02784900  1
  H  1390  1  0.47072600  0.38969500  0.01202500  1
  H  1400  1  0.41184000  0.67952900  0.70766600  1
  H  1401  1  0.41901700  0.65520800  0.71263400  1
  H  1402  1  0.38916000  0.65556800  0.69779000  1
  H  1404  1  0.46194300  0.68888600  0.67125100  1
  H  1405  1  0.45492200  0.68701600  0.69718700  1
  H  1406  1  0.42908100  0.69391800  0.68230900  1
  H  1408  1  0.41598800  0.57077900  0.63535100  1
  H  1409  1  0.44616900  0.56847100  0.62067000  1
  H  1410  1  0.41582000  0.57231100  0.60852200  1
  H  1412  1  0.46695300  0.61057500  0.59501600  1
  H  1413  1  0.44036900  0.59083300  0.58974200  1
  H  1414  1  0.47075600  0.58735200  0.60209000  1
  H  1424  1  0.41186400  0.99316700  0.31226000  1
  H  1425  1  0.41904100  0.02245300  0.33658500  1
  H  1426  1  0.38918200  0.00725000  0.33622200  1
  H  1428  1  0.46195900  0.94738700  0.30289600  1
  H  1429  1  0.45494400  0.97519700  0.30477100  1
  H  1430  1  0.42910000  0.95342000  0.29786500  1
  H  1432  1  0.41600400  0.02958300  0.42100800  1
  H  1433  1  0.44618100  0.01720400  0.42331400  1
  H  1434  1  0.41582800  0.00121900  0.41946900  1
  H  1436  1  0.46695500  0.94944500  0.38119900  1
  H  1437  1  0.44037100  0.96391500  0.40094200  1
  H  1438  1  0.47076400  0.97973900  0.40442500  1
  H  1448  1  0.95734000  0.28331100  0.99852500  1
  H  1449  1  0.95027500  0.27847600  0.96927000  1
  H  1450  1  0.98013200  0.29322500  0.98455300  1
  H  1452  1  0.90754700  0.31991700  0.04454100  1
  H  1453  1  0.91436600  0.29396000  0.01668300  1
  H  1454  1  0.94034600  0.30872800  0.03833300  1
  H  1456  1  0.95353000  0.35581200  0.96230700  1
  H  1457  1  0.92333500  0.37048900  0.97464200  1
  H  1458  1  0.95365900  0.38262100  0.99068200  1
  H  1460  1  0.90243300  0.39608500  0.04237000  1
  H  1461  1  0.92906000  0.40137900  0.02795400  1
  H  1462  1  0.89869400  0.38904500  0.01207700  1
  H  1472  1  0.95733800  0.68020700  0.70848400  1
  H  1473  1  0.95027200  0.65578300  0.71331300  1
  H  1474  1  0.98013000  0.65632200  0.69856600  1
  H  1476  1  0.90754100  0.68962300  0.67188400  1
  H  1477  1  0.91436300  0.68771800  0.69783800  1
  H  1478  1  0.94034100  0.69460800  0.68307400  1
  H  1480  1  0.95352900  0.57149400  0.63596700  1
  H  1481  1  0.92333400  0.56915300  0.62129100  1
  H  1482  1  0.95365800  0.57306400  0.60916100  1
  H  1484  1  0.90243300  0.61129400  0.59570600  1
  H  1485  1  0.92906100  0.59158500  0.59040800  1
  H  1486  1  0.89869500  0.58803800  0.60274000  1
  H  1496  1  0.95736200  0.99330200  0.31157600  1
  H  1497  1  0.95030200  0.02255500  0.33600700  1
  H  1498  1  0.98015700  0.00726300  0.33546200  1
  H  1500  1  0.90755900  0.94728900  0.30215200  1
  H  1501  1  0.91438700  0.97514800  0.30406200  1
  H  1502  1  0.94036100  0.95349000  0.29716900  1
  H  1504  1  0.95355400  0.02948300  0.42028800  1
  H  1505  1  0.92335400  0.01715100  0.42262800  1
  H  1506  1  0.95367500  0.00110300  0.41871200  1
  H  1508  1  0.90244300  0.94942500  0.38047500  1
  H  1509  1  0.92907200  0.96383300  0.40018700  1
  H  1510  1  0.89870900  0.97971600  0.40373400  1
  H  1520  1  0.45735000  0.68790200  0.01386600  1
  H  1521  1  0.45028700  0.69273100  0.04312000  1
  H  1522  1  0.48014400  0.67798600  0.02783400  1
  H  1524  1  0.40755200  0.65129800  0.96785300  1
  H  1525  1  0.41437400  0.67725200  0.99571200  1
  H  1526  1  0.44035100  0.66248900  0.97405600  1
  H  1528  1  0.45355300  0.61538700  0.05006700  1
  H  1529  1  0.42336000  0.60070900  0.03773400  1
  H  1530  1  0.45368300  0.58858100  0.02169100  1
  H  1532  1  0.40245400  0.57512000  0.97000800  1
  H  1533  1  0.42908500  0.56982600  0.98441900  1
  H  1534  1  0.39872000  0.58215600  0.00029800  1
  H  1544  1  0.45734800  0.29098000  0.30388200  1
  H  1545  1  0.45028500  0.31540500  0.29905300  1
  H  1546  1  0.48014000  0.31486500  0.31380100  1
  H  1548  1  0.40755200  0.28156100  0.34048000  1
  H  1549  1  0.41437600  0.28346400  0.31452500  1
  H  1550  1  0.44035300  0.27658200  0.32929600  1
  H  1552  1  0.45353200  0.39969400  0.37639600  1
  H  1553  1  0.42333600  0.40203500  0.39107000  1
  H  1554  1  0.45365700  0.39812400  0.40320300  1
  H  1556  1  0.40243100  0.35989400  0.41665600  1
  H  1557  1  0.42905900  0.37960400  0.42195500  1
  H  1558  1  0.39869400  0.38315000  0.40962100  1
  H  1568  1  0.45732400  0.97792800  0.70080500  1
  H  1569  1  0.45025900  0.94867300  0.67638400  1
  H  1570  1  0.48011800  0.96395800  0.67692100  1
  H  1572  1  0.40753400  0.02394700  0.71021800  1
  H  1573  1  0.41435200  0.99609000  0.70831700  1
  H  1574  1  0.44033300  0.01774000  0.71520000  1
  H  1576  1  0.45351600  0.94171300  0.59208800  1
  H  1577  1  0.42332000  0.95404900  0.58974500  1
  H  1578  1  0.45364500  0.97008800  0.59365500  1
  H  1580  1  0.40242300  0.02177900  0.63188000  1
  H  1581  1  0.42904900  0.00736200  0.61217000  1
  H  1582  1  0.39868200  0.99148600  0.60862500  1
  H  1592  1  0.81506000  0.58609700  0.16981100  1
  H  1593  1  0.78820800  0.57585300  0.14868600  1
  H  1594  1  0.81078000  0.59765800  0.15014800  1
  H  1596  1  0.81090800  0.51745200  0.15057000  1
  H  1597  1  0.78825800  0.53761800  0.14888100  1
  H  1598  1  0.81510800  0.54872500  0.17000400  1
  H  1600  1  0.87568700  0.56455200  0.08423700  1
  H  1601  1  0.87084000  0.53341100  0.06325400  1
  H  1602  1  0.89703400  0.54326700  0.08502900  1
  H  1604  1  0.87562700  0.48416200  0.08452400  1
  H  1605  1  0.89701900  0.50614300  0.08516100  1
  H  1606  1  0.87081100  0.49415000  0.06340300  1
  H  1616  1  0.81488600  0.54874400  0.40576300  1
  H  1617  1  0.78808000  0.53781600  0.41601100  1
  H  1618  1  0.81065600  0.51751200  0.39417800  1
  H  1620  1  0.81076100  0.59809400  0.47442800  1
  H  1621  1  0.78812400  0.57622200  0.45426600  1
  H  1622  1  0.81492400  0.58629000  0.44315500  1
  H  1624  1  0.87569700  0.48471300  0.42717900  1
  H  1625  1  0.87092400  0.49486300  0.45832900  1
  H  1626  1  0.89705900  0.50680100  0.44843000  1
  H  1628  1  0.87571500  0.56538100  0.50757200  1
  H  1629  1  0.89707200  0.54404600  0.48555100  1
  H  1630  1  0.87093000  0.53427100  0.49759800  1
  H  1640  1  0.81451100  0.82209300  0.44305800  1
  H  1641  1  0.78781700  0.84338800  0.45405000  1
  H  1642  1  0.81038400  0.84175100  0.47429900  1
  H  1644  1  0.81048200  0.84144200  0.39373000  1
  H  1645  1  0.78785900  0.84324700  0.41565300  1
  H  1646  1  0.81454600  0.82195000  0.40551800  1
  H  1648  1  0.87572200  0.90730500  0.50699300  1
  H  1649  1  0.87107300  0.92831100  0.49683600  1
  H  1650  1  0.89710300  0.90636900  0.48486800  1
  H  1652  1  0.87579600  0.90700700  0.42631200  1
  H  1653  1  0.89713800  0.90623700  0.44761400  1
  H  1654  1  0.87110600  0.92816600  0.45742900  1
  H  1664  1  0.31482100  0.38519800  0.84263300  1
  H  1665  1  0.28803400  0.39545500  0.86382700  1
  H  1666  1  0.31060600  0.37361200  0.86228000  1
  H  1668  1  0.31071600  0.45386700  0.86195800  1
  H  1669  1  0.28808000  0.43371200  0.86368000  1
  H  1670  1  0.31486300  0.42259300  0.84248500  1
  H  1672  1  0.37570100  0.40658100  0.92803600  1
  H  1673  1  0.37094600  0.43773100  0.94904000  1
  H  1674  1  0.39706200  0.42782600  0.92718700  1
  H  1676  1  0.37572100  0.48698100  0.92777300  1
  H  1677  1  0.39707800  0.46494900  0.92706900  1
  H  1678  1  0.37095400  0.47700400  0.94890900  1
  H  1688  1  0.31483500  0.42247300  0.60661900  1
  H  1689  1  0.28804600  0.43340500  0.59635900  1
  H  1690  1  0.31061800  0.45370500  0.61819400  1
  H  1692  1  0.31072200  0.37310900  0.53795700  1
  H  1693  1  0.28808800  0.39499300  0.55811200  1
  H  1694  1  0.31487300  0.38492100  0.56923200  1
  H  1696  1  0.37570500  0.48647000  0.58519500  1
  H  1697  1  0.37094600  0.47631100  0.55404200  1
  H  1698  1  0.39706600  0.46437200  0.56395400  1
  H  1700  1  0.37572100  0.40578800  0.50481300  1
  H  1701  1  0.39707800  0.42712100  0.52683900  1
  H  1702  1  0.37095200  0.43689900  0.51478100  1
  H  1712  1  0.31505600  0.14922200  0.56930500  1
  H  1713  1  0.28820500  0.12809500  0.55842100  1
  H  1714  1  0.31078000  0.12955900  0.53808100  1
  H  1716  1  0.31089900  0.12998100  0.61870900  1
  H  1717  1  0.28825300  0.12829200  0.59685200  1
  H  1718  1  0.31510000  0.14941500  0.60687000  1
  H  1720  1  0.37569100  0.06365200  0.50528200  1
  H  1721  1  0.37084200  0.04266800  0.51544100  1
  H  1722  1  0.39703600  0.06444500  0.52736100  1
  H  1724  1  0.37562500  0.06393900  0.58595900  1
  H  1725  1  0.39701800  0.06457700  0.56461800  1
  H  1726  1  0.37081100  0.04282000  0.55485100  1
  H  1736  1  0.05434600  0.42202000  0.84248800  1
  H  1737  1  0.08119400  0.43299900  0.86361800  1
  H  1738  1  0.05862300  0.45326800  0.86202100  1
  H  1740  1  0.05848400  0.37288900  0.86209800  1
  H  1741  1  0.08113200  0.39469800  0.86368300  1
  H  1742  1  0.05431100  0.38457200  0.84252900  1
  H  1744  1  0.99391000  0.48649200  0.92808300  1
  H  1745  1  0.99859400  0.47632600  0.94907500  1
  H  1746  1  0.97240400  0.46450800  0.92729000  1
  H  1748  1  0.99344600  0.40586200  0.92788900  1
  H  1749  1  0.97222100  0.42728600  0.92722300  1
  H  1750  1  0.99838700  0.43695800  0.94901300  1
  H  1760  1  0.05392200  0.14939000  0.60642700  1
  H  1761  1  0.08089500  0.12839500  0.59631000  1
  H  1762  1  0.05832400  0.12984300  0.61810900  1
  H  1764  1  0.05814900  0.12990100  0.53772000  1
  H  1765  1  0.08082100  0.12839500  0.55797400  1
  H  1766  1  0.05386800  0.14941100  0.56897100  1
  H  1768  1  0.99394300  0.06350800  0.58505900  1
  H  1769  1  0.99879100  0.04253800  0.55391600  1
  H  1770  1  0.97247100  0.06419000  0.56379000  1
  H  1772  1  0.99360600  0.06371000  0.50462600  1
  H  1773  1  0.97233400  0.06426500  0.52663700  1
  H  1774  1  0.99864200  0.04261600  0.51461900  1
  H  1784  1  0.05404600  0.38543400  0.56976500  1
  H  1785  1  0.08098500  0.39555000  0.55884900  1
  H  1786  1  0.05841000  0.37372900  0.53852800  1
  H  1788  1  0.05825700  0.45416200  0.61893200  1
  H  1789  1  0.08091700  0.43390600  0.59716300  1
  H  1790  1  0.05400200  0.42291300  0.60722500  1
  H  1792  1  0.99394000  0.40669500  0.50523300  1
  H  1793  1  0.99872600  0.43784200  0.51540000  1
  H  1794  1  0.97245000  0.42793300  0.52719000  1
  H  1796  1  0.99351900  0.48712600  0.58586200  1
  H  1797  1  0.97228300  0.46508100  0.56440700  1
  H  1798  1  0.99853900  0.47715100  0.55477700  1
  H  1808  1  0.55412000  0.54913700  0.16991100  1
  H  1809  1  0.58103900  0.53821700  0.14885600  1
  H  1810  1  0.55846600  0.51789900  0.15036500  1
  H  1812  1  0.55831300  0.59832100  0.15037300  1
  H  1813  1  0.58097100  0.57653800  0.14883400  1
  H  1814  1  0.55407400  0.58660600  0.16990900  1
  H  1816  1  0.49393400  0.48465100  0.08415500  1
  H  1817  1  0.49869700  0.49483000  0.06318200  1
  H  1818  1  0.47244300  0.50662200  0.08490200  1
  H  1820  1  0.49350800  0.56529900  0.08439100  1
  H  1821  1  0.47227200  0.54384800  0.08499000  1
  H  1822  1  0.49850700  0.53421400  0.06326900  1
  H  1832  1  0.55436300  0.82190600  0.40607200  1
  H  1833  1  0.58120800  0.84303800  0.41622800  1
  H  1834  1  0.55863800  0.84143900  0.39435800  1
  H  1836  1  0.55849200  0.84151500  0.47481300  1
  H  1837  1  0.58114300  0.84310300  0.45459200  1
  H  1838  1  0.55432300  0.82194400  0.44356000  1
  H  1840  1  0.49391600  0.90749400  0.42719200  1
  H  1841  1  0.49859500  0.92848600  0.45834900  1
  H  1842  1  0.47240700  0.90669600  0.44837800  1
  H  1844  1  0.49344200  0.90729700  0.50762400  1
  H  1845  1  0.47222000  0.90662900  0.48553200  1
  H  1846  1  0.49838400  0.92842300  0.49765600  1
  H  1856  1  0.55409000  0.58576000  0.44260900  1
  H  1857  1  0.58101700  0.57563700  0.45353100  1
  H  1858  1  0.55844700  0.59746700  0.47384700  1
  H  1860  1  0.55828500  0.51703100  0.39344500  1
  H  1861  1  0.58094700  0.53728200  0.41521800  1
  H  1862  1  0.55404400  0.54828000  0.40514900  1
  H  1864  1  0.49393400  0.56452300  0.50713000  1
  H  1865  1  0.49870700  0.53337600  0.49696800  1
  H  1866  1  0.47244300  0.54329000  0.48516900  1
  H  1868  1  0.49351000  0.48408800  0.42650500  1
  H  1869  1  0.47227400  0.50614100  0.44795600  1
  H  1870  1  0.49851700  0.49406600  0.45759400  1
  C  1  1  0.85217900  0.66291900  0.10659900  1
  C  2  1  0.87121900  0.65716800  0.08807600  1
  C  3  1  0.89048400  0.67428800  0.08969700  1
  C  4  1  0.89057600  0.69782800  0.11107700  1
  C  5  1  0.87155100  0.70426100  0.13002700  1
  C  6  1  0.85233300  0.68661000  0.12744400  1
  C  9  1  0.83187100  0.64556500  0.10294200  1
  C  10  1  0.80514200  0.64950600  0.09841700  1
  C  11  1  0.78502100  0.63195800  0.09396500  1
  C  12  1  0.79208200  0.61036100  0.09426900  1
  C  13  1  0.81883000  0.60582000  0.09814900  1
  C  14  1  0.83842500  0.62362100  0.10256200  1
  C  23  1  0.82517900  0.58371000  0.09666600  1
  C  24  1  0.86967700  0.72788400  0.15004300  1
  C  25  1  0.90922900  0.66767700  0.07094600  1
  C  26  1  0.75913000  0.63565300  0.08846300  1
  C  31  1  0.85217200  0.40869100  0.32885700  1
  C  32  1  0.87122500  0.39593300  0.33461500  1
  C  33  1  0.89049400  0.38044100  0.31749600  1
  C  34  1  0.89058000  0.37828000  0.29395400  1
  C  35  1  0.87154100  0.39078500  0.28752000  1
  C  36  1  0.85232200  0.40585200  0.30516800  1
  C  39  1  0.83186400  0.42238600  0.34621400  1
  C  40  1  0.80513300  0.41392200  0.34226700  1
  C  41  1  0.78501300  0.42701800  0.35981700  1
  C  42  1  0.79207400  0.44891600  0.38141500  1
  C  43  1  0.81882200  0.45733700  0.38595800  1
  C  44  1  0.83841800  0.44394900  0.36816000  1
  C  53  1  0.82517000  0.47795800  0.40806900  1
  C  54  1  0.86967400  0.38719000  0.26390000  1
  C  55  1  0.90924200  0.36830100  0.32410400  1
  C  56  1  0.75912400  0.41781800  0.35612300  1
  C  61  1  0.85216800  0.88517900  0.58309500  1
  C  62  1  0.87121300  0.90370200  0.59586800  1
  C  63  1  0.89047200  0.90207800  0.61137000  1
  C  64  1  0.89055800  0.88069600  0.61352900  1
  C  65  1  0.87152300  0.86175400  0.60101600  1
  C  66  1  0.85230900  0.86433800  0.58594700  1
  C  69  1  0.83185700  0.88885500  0.56941200  1
  C  70  1  0.80513300  0.89338800  0.57788900  1
  C  71  1  0.78500500  0.89784000  0.56479700  1
  C  72  1  0.79205800  0.89753500  0.54289500  1
  C  73  1  0.81880000  0.89363700  0.53445900  1
  C  74  1  0.83840200  0.88922000  0.54783800  1
  C  83  1  0.82512200  0.89508200  0.51381000  1
  C  84  1  0.86964900  0.84173100  0.60461000  1
  C  85  1  0.90921700  0.92082700  0.62351600  1
  C  86  1  0.75911800  0.90334400  0.57400100  1
  C  91  1  0.35216600  0.30826400  0.90575000  1
  C  92  1  0.37120900  0.31401900  0.92427500  1
  C  93  1  0.39046700  0.29689600  0.92265600  1
  C  94  1  0.39055500  0.27335400  0.90127800  1
  C  95  1  0.37151600  0.26691700  0.88233600  1
  C  96  1  0.35231000  0.28457100  0.88490900  1
  C  99  1  0.33186000  0.32562500  0.90941700  1
  C  100  1  0.30512900  0.32168200  0.91393800  1
  C  101  1  0.28500800  0.33923100  0.91838900  1
  C  102  1  0.29207200  0.36083100  0.91809400  1
  C  103  1  0.31881900  0.36536800  0.91420700  1
  C  104  1  0.33841400  0.34756800  0.90979500  1
  C  113  1  0.32517100  0.38748300  0.91571000  1
  C  114  1  0.36965700  0.24329900  0.86231200  1
  C  115  1  0.40921500  0.30350500  0.94140300  1
  C  116  1  0.25911900  0.33554000  0.92389700  1
  C  121  1  0.35218400  0.56250700  0.68351300  1
  C  122  1  0.37122500  0.57527900  0.67776100  1
  C  123  1  0.39049100  0.59077500  0.69487900  1
  C  124  1  0.39058400  0.59293600  0.71842100  1
  C  125  1  0.37156000  0.58041900  0.72485400  1
  C  126  1  0.35233900  0.56535300  0.70720400  1
  C  129  1  0.33187400  0.54881300  0.66615900  1
  C  130  1  0.30514700  0.55728100  0.67010400  1
  C  131  1  0.28502400  0.54418900  0.65255600  1
  C  132  1  0.29208100  0.52229000  0.63095600  1
  C  133  1  0.31882900  0.51386700  0.62641400  1
  C  134  1  0.33842600  0.52725000  0.64421400  1
  C  143  1  0.32517700  0.49324600  0.60430200  1
  C  144  1  0.36968500  0.58402400  0.74847600  1
  C  145  1  0.40923700  0.60291500  0.68826900  1
  C  146  1  0.25913300  0.55338800  0.65625200  1
  C  151  1  0.35219000  0.08601200  0.42927300  1
  C  152  1  0.37124300  0.06749500  0.41651200  1
  C  153  1  0.39050900  0.06912400  0.40101900  1
  C  154  1  0.39059200  0.09050200  0.39885600  1
  C  155  1  0.37155400  0.10944200  0.41136200  1
  C  156  1  0.35233500  0.10685900  0.42643000  1
  C  159  1  0.33188200  0.08234700  0.44296600  1
  C  160  1  0.30515500  0.07782400  0.43449900  1
  C  161  1  0.28503400  0.07336600  0.44759000  1
  C  162  1  0.29209100  0.07367200  0.46949200  1
  C  163  1  0.31883700  0.07755900  0.47792000  1
  C  164  1  0.33843600  0.08197100  0.46453300  1
  C  173  1  0.32518300  0.07608000  0.49855000  1
  C  174  1  0.36968300  0.12946600  0.40776600  1
  C  175  1  0.40925500  0.05037400  0.38887500  1
  C  176  1  0.25914700  0.06785400  0.43838500  1
  C  181  1  0.01703600  0.56221000  0.90566100  1
  C  182  1  0.99793900  0.57463700  0.92421800  1
  C  183  1  0.97834600  0.58995100  0.92274200  1
  C  184  1  0.97801300  0.59239700  0.90153600  1
  C  185  1  0.99719400  0.58034500  0.88262600  1
  C  186  1  0.01669500  0.56536200  0.88500400  1
  C  189  1  0.03748500  0.54850500  0.90913100  1
  C  190  1  0.06418100  0.55705700  0.91364000  1
  C  191  1  0.08438900  0.54400000  0.91804500  1
  C  192  1  0.07745300  0.52206200  0.91772000  1
  C  193  1  0.05073900  0.51355400  0.91385500  1
  C  194  1  0.03105900  0.52690100  0.90948500  1
  C  203  1  0.04451000  0.49289600  0.91532200  1
  C  204  1  0.99899300  0.58437100  0.86288100  1
  C  205  1  0.95951600  0.60155000  0.94147600  1
  C  206  1  0.11023600  0.55328800  0.92356200  1
  C  211  1  0.01702800  0.08611500  0.68332200  1
  C  212  1  0.99793300  0.06755900  0.67719200  1
  C  213  1  0.97834200  0.06903100  0.69398300  1
  C  214  1  0.97801100  0.09023100  0.71763600  1
  C  215  1  0.99719600  0.10914100  0.72450000  1
  C  216  1  0.01668700  0.10677300  0.70713300  1
  C  219  1  0.03747300  0.08265300  0.66614600  1
  C  220  1  0.06416900  0.07815000  0.67018500  1
  C  221  1  0.08437100  0.07374500  0.65272100  1
  C  222  1  0.07742900  0.07406800  0.63110800  1
  C  223  1  0.05071300  0.07792800  0.62646600  1
  C  224  1  0.03103700  0.08229500  0.64418800  1
  C  233  1  0.04445900  0.07642200  0.60432600  1
  C  234  1  0.99898300  0.12888500  0.74827200  1
  C  235  1  0.95951100  0.05029500  0.68684100  1
  C  236  1  0.11022000  0.06822000  0.65648200  1
  C  241  1  0.01704000  0.30847300  0.42957600  1
  C  242  1  0.99794900  0.31460300  0.41714700  1
  C  243  1  0.97834900  0.29782100  0.40183700  1
  C  244  1  0.97800900  0.27416800  0.39938800  1
  C  245  1  0.99717800  0.26730700  0.41144800  1
  C  246  1  0.01668500  0.28466500  0.42642900  1
  C  249  1  0.03748900  0.32564200  0.44329300  1
  C  250  1  0.06418700  0.32160100  0.43475400  1
  C  251  1  0.08438900  0.33906800  0.44781300  1
  C  252  1  0.07744500  0.36068200  0.46974700  1
  C  253  1  0.05072700  0.36532600  0.47823800  1
  C  254  1  0.03105100  0.34760500  0.46488700  1
  C  263  1  0.04447000  0.38746900  0.49887100  1
  C  264  1  0.99897700  0.24353000  0.40740700  1
  C  265  1  0.95952100  0.30496300  0.39024200  1
  C  266  1  0.11024000  0.33530100  0.43853200  1
  C  271  1  0.51703400  0.40896500  0.10668400  1
  C  272  1  0.49793000  0.39655000  0.08813400  1
  C  273  1  0.47832700  0.38124500  0.08961400  1
  C  274  1  0.47799600  0.37879500  0.11081600  1
  C  275  1  0.49718100  0.39084200  0.12972400  1
  C  276  1  0.51668600  0.40582300  0.12734800  1
  C  279  1  0.53748100  0.42268000  0.10322600  1
  C  280  1  0.56417900  0.41413900  0.09873000  1
  C  281  1  0.58438200  0.42719600  0.09431800  1
  C  282  1  0.57744000  0.44913000  0.09463900  1
  C  283  1  0.55072400  0.45762700  0.09849100  1
  C  284  1  0.53104600  0.44427500  0.10286000  1
  C  293  1  0.54446900  0.47826100  0.09698600  1
  C  294  1  0.49897500  0.38681200  0.14946900  1
  C  295  1  0.45949700  0.36964800  0.07087800  1
  C  296  1  0.61022900  0.41790900  0.08879600  1
  C  301  1  0.51705400  0.88508100  0.32905500  1
  C  302  1  0.49796000  0.90363800  0.33518400  1
  C  303  1  0.47836700  0.90216400  0.31839400  1
  C  304  1  0.47803200  0.88095900  0.29474200  1
  C  305  1  0.49721300  0.86204800  0.28788400  1
  C  306  1  0.51671400  0.86442400  0.30524600  1
  C  309  1  0.53750100  0.88854800  0.34623100  1
  C  310  1  0.56419700  0.89305600  0.34219000  1
  C  311  1  0.58440300  0.89745900  0.35965200  1
  C  312  1  0.57746600  0.89713400  0.38126400  1
  C  313  1  0.55075200  0.89327000  0.38590600  1
  C  314  1  0.53107300  0.88890100  0.36818700  1
  C  323  1  0.54452100  0.89473700  0.40802900  1
  C  324  1  0.49901100  0.84230300  0.26411200  1
  C  325  1  0.45953700  0.92090000  0.32553000  1
  C  326  1  0.61025500  0.90297400  0.35588200  1
  C  331  1  0.51704200  0.66274000  0.58280000  1
  C  332  1  0.49794800  0.65660600  0.59522300  1
  C  333  1  0.47835300  0.67339300  0.61054100  1
  C  334  1  0.47801600  0.69704600  0.61299400  1
  C  335  1  0.49720300  0.70391300  0.60095100  1
  C  336  1  0.51669800  0.68655000  0.58595400  1
  C  339  1  0.53748700  0.64556500  0.56908500  1
  C  340  1  0.56418700  0.64960600  0.57762100  1
  C  341  1  0.58438900  0.63214100  0.56455800  1
  C  342  1  0.57744400  0.61052600  0.54262800  1
  C  343  1  0.55072600  0.60588400  0.53413200  1
  C  344  1  0.53105000  0.62360500  0.54748800  1
  C  353  1  0.54446700  0.58374000  0.51350600  1
  C  354  1  0.49898500  0.72768700  0.60497900  1
  C  355  1  0.45951900  0.66624900  0.62213000  1
  C  356  1  0.61023900  0.63590500  0.57384100  1
  C  361  1  0.01716900  0.30752900  0.90576200  1
  C  362  1  0.99812600  0.31335200  0.92429700  1
  C  363  1  0.97877500  0.29630500  0.92268300  1
  C  364  1  0.97857300  0.27277800  0.90129400  1
  C  365  1  0.99763800  0.26623500  0.88234900  1
  C  366  1  0.01695600  0.28382000  0.88493700  1
  C  369  1  0.03744700  0.32488800  0.90934800  1
  C  370  1  0.06419700  0.32101700  0.91388600  1
  C  371  1  0.08426300  0.33859000  0.91827500  1
  C  372  1  0.07714000  0.36014000  0.91791000  1
  C  373  1  0.05036300  0.36463200  0.91406800  1
  C  374  1  0.03081800  0.34680700  0.90969800  1
  C  383  1  0.04394700  0.38676100  0.91563600  1
  C  384  1  0.99937700  0.24261800  0.86227000  1
  C  385  1  0.96002300  0.30299100  0.94143600  1
  C  386  1  0.11015800  0.33505200  0.92388300  1
  C  391  1  0.01718100  0.56323600  0.68425300  1
  C  392  1  0.99812800  0.57593600  0.67842300  1
  C  393  1  0.97877300  0.59136400  0.69547000  1
  C  394  1  0.97857600  0.59350400  0.71899800  1
  C  395  1  0.99765400  0.58111500  0.72554400  1
  C  396  1  0.01697400  0.56611700  0.70795900  1
  C  399  1  0.03746100  0.54946600  0.66689400  1
  C  400  1  0.06421100  0.55787700  0.67077100  1
  C  401  1  0.08427900  0.54469300  0.65320200  1
  C  402  1  0.07716200  0.52277500  0.63165500  1
  C  403  1  0.05038700  0.51443400  0.62715700  1
  C  404  1  0.03083600  0.52789300  0.64497500  1
  C  413  1  0.04397800  0.49386700  0.60502700  1
  C  414  1  0.99938700  0.58464100  0.74915800  1
  C  415  1  0.96002100  0.60343400  0.68878800  1
  C  416  1  0.11017000  0.55384700  0.65674200  1
  C  421  1  0.01717700  0.08604600  0.42858900  1
  C  422  1  0.99813400  0.06751100  0.41587500  1
  C  423  1  0.97879100  0.06912500  0.40043600  1
  C  424  1  0.97859200  0.09051500  0.39830000  1
  C  425  1  0.99766600  0.10945200  0.41069500  1
  C  426  1  0.01697800  0.10686500  0.42569700  1
  C  429  1  0.03746900  0.08244300  0.44234000  1
  C  430  1  0.06420300  0.07786800  0.43388800  1
  C  431  1  0.08429300  0.07349500  0.44706200  1
  C  432  1  0.07720600  0.07390100  0.46900400  1
  C  433  1  0.05044600  0.07778200  0.47738800  1
  C  434  1  0.03087800  0.08214100  0.46394000  1
  C  443  1  0.04409400  0.07631700  0.49801800  1
  C  444  1  0.99940500  0.12953600  0.40716500  1
  C  445  1  0.96004300  0.05037000  0.38835900  1
  C  446  1  0.11017400  0.06786900  0.43788600  1
  C  451  1  0.51717600  0.66367300  0.10662900  1
  C  452  1  0.49813500  0.65784600  0.08809100  1
  C  453  1  0.47878900  0.67489600  0.08969900  1
  C  454  1  0.47859000  0.69842600  0.11108400  1
  C  455  1  0.49766700  0.70497500  0.13002200  1
  C  456  1  0.51697100  0.68738400  0.12744800  1
  C  459  1  0.53745400  0.64631300  0.10304000  1
  C  460  1  0.56420300  0.65018600  0.09850100  1
  C  461  1  0.58427600  0.63262200  0.09412700  1
  C  462  1  0.57715700  0.61107700  0.09450300  1
  C  463  1  0.55038300  0.60658300  0.09835200  1
  C  464  1  0.53083200  0.62440100  0.10270600  1
  C  473  1  0.54397100  0.58445600  0.09679600  1
  C  474  1  0.49938800  0.72859000  0.15010900  1
  C  475  1  0.46003900  0.66820900  0.07094500  1
  C  476  1  0.61016700  0.63615900  0.08850900  1
  C  481  1  0.51717000  0.40797100  0.32811900  1
  C  482  1  0.49812700  0.39525600  0.33394000  1
  C  483  1  0.47877500  0.37982300  0.31689300  1
  C  484  1  0.47857200  0.37768600  0.29336600  1
  C  485  1  0.49763900  0.39009000  0.28682500  1
  C  486  1  0.51695700  0.40508600  0.30441000  1
  C  489  1  0.53745000  0.42173900  0.34547400  1
  C  490  1  0.56419700  0.41332300  0.34160100  1
  C  491  1  0.58427000  0.42650300  0.35916800  1
  C  492  1  0.57715300  0.44842200  0.38071700  1
  C  493  1  0.55037900  0.45676500  0.38521600  1
  C  494  1  0.53082800  0.44331100  0.36739200  1
  C  503  1  0.54397100  0.47733000  0.40734500  1
  C  504  1  0.49937800  0.38655300  0.26320800  1
  C  505  1  0.46002500  0.36775500  0.32357800  1
  C  506  1  0.61016100  0.41734900  0.35562600  1
  C  511  1  0.51716800  0.88517600  0.58383900  1
  C  512  1  0.49811500  0.90370700  0.59654100  1
  C  513  1  0.47876100  0.90208900  0.61196800  1
  C  514  1  0.47856400  0.88070000  0.61410900  1
  C  515  1  0.49764300  0.86176500  0.60172000  1
  C  516  1  0.51696100  0.86435000  0.58671900  1
  C  519  1  0.53744400  0.88876400  0.57006500  1
  C  520  1  0.56419700  0.89329500  0.57847100  1
  C  521  1  0.58426200  0.89768300  0.56528600  1
  C  522  1  0.57713700  0.89732100  0.54337400  1
  C  523  1  0.55035900  0.89348200  0.53504000  1
  C  524  1  0.53081200  0.88911800  0.54849900  1
  C  533  1  0.54394300  0.89505100  0.51448000  1
  C  534  1  0.49937600  0.84168000  0.60524900  1
  C  535  1  0.46000900  0.92084200  0.62403800  1
  C  536  1  0.61015500  0.90329400  0.57443300  1
  C  541  1  0.85235800  0.40827900  0.10675900  1
  C  542  1  0.87144400  0.39589900  0.08818500  1
  C  543  1  0.89112500  0.38065200  0.08965400  1
  C  544  1  0.89158300  0.37824700  0.11087900  1
  C  545  1  0.87237800  0.39019900  0.12979100  1
  C  546  1  0.85277200  0.40510500  0.12740500  1
  C  549  1  0.83193100  0.42205000  0.10336000  1
  C  550  1  0.80522500  0.41352900  0.09881700  1
  C  551  1  0.78505900  0.42666200  0.09447300  1
  C  552  1  0.79203400  0.44862900  0.09488100  1
  C  553  1  0.81876600  0.45707800  0.09873000  1
  C  554  1  0.83841100  0.44367300  0.10305700  1
  C  563  1  0.82503200  0.47770200  0.09722200  1
  C  564  1  0.87075600  0.38628100  0.14962700  1
  C  565  1  0.90994900  0.36911400  0.07090900  1
  C  566  1  0.75921500  0.41740100  0.08883400  1
  C  571  1  0.85236300  0.88504500  0.32825100  1
  C  572  1  0.87144900  0.90362100  0.33445000  1
  C  573  1  0.89113000  0.90215700  0.31773700  1
  C  574  1  0.89158700  0.88093800  0.29410500  1
  C  575  1  0.87237700  0.86202600  0.28713700  1
  C  576  1  0.85277800  0.86440100  0.30443100  1
  C  579  1  0.83195200  0.88842900  0.34543200  1
  C  580  1  0.80522900  0.89293600  0.34146200  1
  C  581  1  0.78508500  0.89728200  0.35895900  1
  C  582  1  0.79210000  0.89691400  0.38053000  1
  C  583  1  0.81884800  0.89309900  0.38511800  1
  C  584  1  0.83847000  0.88877200  0.36736900  1
  C  593  1  0.82518200  0.89470100  0.40728000  1
  C  594  1  0.87077200  0.84219000  0.26338200  1
  C  595  1  0.90996000  0.92089900  0.32495400  1
  C  596  1  0.75922900  0.90290900  0.35535400  1
  C  601  1  0.85235400  0.66351100  0.58353900  1
  C  602  1  0.87143800  0.65731500  0.59591900  1
  C  603  1  0.89112400  0.67402600  0.61116100  1
  C  604  1  0.89158500  0.69765600  0.61356800  1
  C  605  1  0.87239000  0.70461800  0.60160800  1
  C  606  1  0.85277900  0.68732900  0.58670600  1
  C  609  1  0.83193700  0.64633800  0.56974600  1
  C  610  1  0.80521700  0.65030900  0.57823100  1
  C  611  1  0.78507100  0.63281400  0.56509100  1
  C  612  1  0.79207600  0.61124300  0.54314800  1
  C  613  1  0.81882100  0.60664700  0.53473900  1
  C  614  1  0.83844800  0.62439700  0.54815200  1
  C  623  1  0.82514500  0.58448200  0.51417700  1
  C  624  1  0.87076600  0.72837500  0.60553700  1
  C  625  1  0.90995000  0.66681300  0.62269100  1
  C  626  1  0.75921700  0.63642400  0.57432700  1
  C  631  1  0.35234900  0.56296800  0.90563600  1
  C  632  1  0.37144600  0.57533600  0.92420600  1
  C  633  1  0.39113600  0.59057100  0.92272900  1
  C  634  1  0.39158800  0.59298000  0.90150800  1
  C  635  1  0.37238000  0.58103400  0.88259800  1
  C  636  1  0.35276800  0.56613300  0.88498500  1
  C  639  1  0.33193400  0.54917700  0.90902300  1
  C  640  1  0.30521200  0.55765600  0.91352400  1
  C  641  1  0.28506600  0.54451500  0.91788100  1
  C  642  1  0.29207600  0.52257400  0.91751300  1
  C  643  1  0.31882100  0.51416600  0.91370200  1
  C  644  1  0.33844800  0.52758500  0.90937300  1
  C  653  1  0.32514800  0.49360800  0.91530800  1
  C  654  1  0.37076100  0.58495200  0.86276200  1
  C  655  1  0.40996400  0.60210400  0.94147200  1
  C  656  1  0.25921500  0.55374900  0.92350500  1
  C  661  1  0.35234900  0.08617000  0.68407600  1
  C  662  1  0.37143400  0.06759400  0.67788100  1
  C  663  1  0.39111400  0.06906200  0.69459600  1
  C  664  1  0.39157200  0.09028600  0.71822600  1
  C  665  1  0.37236800  0.10920000  0.72518800  1
  C  666  1  0.35276400  0.10681500  0.70789600  1
  C  669  1  0.33192400  0.08277300  0.66690400  1
  C  670  1  0.30521600  0.07823000  0.67088200  1
  C  671  1  0.28505000  0.07389000  0.65340600  1
  C  672  1  0.29202800  0.07429700  0.63184600  1
  C  673  1  0.31875900  0.07814400  0.62724600  1
  C  674  1  0.33840400  0.08247000  0.64498000  1
  C  683  1  0.32502800  0.07663600  0.60511500  1
  C  684  1  0.37074700  0.12903500  0.74894400  1
  C  685  1  0.40993800  0.05031800  0.68739100  1
  C  686  1  0.25920700  0.06825000  0.65702600  1
  C  691  1  0.35235500  0.30767500  0.42882600  1
  C  692  1  0.37144000  0.31387300  0.41644700  1
  C  693  1  0.39112200  0.29716200  0.40120000  1
  C  694  1  0.39158000  0.27352900  0.39878700  1
  C  695  1  0.37237200  0.26656000  0.41073100  1
  C  696  1  0.35277400  0.28385400  0.42565000  1
  C  699  1  0.33194000  0.32485100  0.44261800  1
  C  700  1  0.30522000  0.32087800  0.43413400  1
  C  701  1  0.28507000  0.33836900  0.44728300  1
  C  702  1  0.29207800  0.35993700  0.46922900  1
  C  703  1  0.31882300  0.36453100  0.47764000  1
  C  704  1  0.33845000  0.34678600  0.46421800  1
  C  713  1  0.32515000  0.38669200  0.49820600  1
  C  714  1  0.37076900  0.24280700  0.40681600  1
  C  715  1  0.40995000  0.30437800  0.38967400  1
  C  716  1  0.25921900  0.33476300  0.43804600  1
  C  721  1  0.88830100  0.80475600  0.23212800  1
  C  722  1  0.89369100  0.80433000  0.20977400  1
  C  723  1  0.89309100  0.78164200  0.18717700  1
  C  724  1  0.88751800  0.75952600  0.18713900  1
  C  725  1  0.88301800  0.75985500  0.20953600  1
  C  726  1  0.88330000  0.78254600  0.23208700  1
  C  727  1  0.89842400  0.77982300  0.16298900  1
  C  731  1  0.90037900  0.82748400  0.20996700  1
  C  735  1  0.87795200  0.73649700  0.20961100  1
  C  739  1  0.87837400  0.78273900  0.25560500  1
  C  745  1  0.88830500  0.39241800  0.18704100  1
  C  746  1  0.89367500  0.37048300  0.18745700  1
  C  747  1  0.89307900  0.37056700  0.21014000  1
  C  748  1  0.88752700  0.39264400  0.23226300  1
  C  749  1  0.88304600  0.41472100  0.23194500  1
  C  750  1  0.88332700  0.41458800  0.20925600  1
  C  751  1  0.89839600  0.34819100  0.21195100  1
  C  755  1  0.90033300  0.34752000  0.16429500  1
  C  759  1  0.87800100  0.43815400  0.25530900  1
  C  763  1  0.87842300  0.43792100  0.20907400  1
  C  769  1  0.88830000  0.75964600  0.59938400  1
  C  770  1  0.89367500  0.78199700  0.62131900  1
  C  771  1  0.89307300  0.80459700  0.62123500  1
  C  772  1  0.88751500  0.80464400  0.59916100  1
  C  773  1  0.88303200  0.78225000  0.57708400  1
  C  774  1  0.88331400  0.75969400  0.57721500  1
  C  775  1  0.89838700  0.82878400  0.64361200  1
  C  779  1  0.90034600  0.78179600  0.64427700  1
  C  783  1  0.87798300  0.78218300  0.55365200  1
  C  787  1  0.87840500  0.73617900  0.55388300  1
  C  793  1  0.38829800  0.16644600  0.78022100  1
  C  794  1  0.39366600  0.16685900  0.80257300  1
  C  795  1  0.39306800  0.18954200  0.82517400  1
  C  796  1  0.38751700  0.21166600  0.82522000  1
  C  797  1  0.38303900  0.21134900  0.80282600  1
  C  798  1  0.38332200  0.18866300  0.78027100  1
  C  799  1  0.39838300  0.19135100  0.84936000  1
  C  803  1  0.40032100  0.14369600  0.80237200  1
  C  807  1  0.37799500  0.23471400  0.80275900  1
  C  811  1  0.37842200  0.18848400  0.75675600  1
  C  817  1  0.38830400  0.57879500  0.82533900  1
  C  818  1  0.39368800  0.60072600  0.82491900  1
  C  819  1  0.39309000  0.60063800  0.80223100  1
  C  820  1  0.38752500  0.57856100  0.78011300  1
  C  821  1  0.38302900  0.55649000  0.78043700  1
  C  822  1  0.38331000  0.55662600  0.80312600  1
  C  823  1  0.39842300  0.62300900  0.80041700  1
  C  827  1  0.40036100  0.62368600  0.84807600  1
  C  831  1  0.37796800  0.53305800  0.75707600  1
  C  835  1  0.37839200  0.53329700  0.80331400  1
  C  841  1  0.38831000  0.21154500  0.41297600  1
  C  842  1  0.39369000  0.18919200  0.39104500  1
  C  843  1  0.39309200  0.16659400  0.39113300  1
  C  844  1  0.38753300  0.16655200  0.41321100  1
  C  845  1  0.38304500  0.18894900  0.43528500  1
  C  846  1  0.38332400  0.21150100  0.43514700  1
  C  847  1  0.39841300  0.14240600  0.36875900  1
  C  851  1  0.40036100  0.18938900  0.36808400  1
  C  855  1  0.37799500  0.18902300  0.45871900  1
  C  859  1  0.37841000  0.23501900  0.45847700  1
  C  865  1  0.98137600  0.57900500  0.78058600  1
  C  866  1  0.97592200  0.60087300  0.80297400  1
  C  867  1  0.97613300  0.60061500  0.82549000  1
  C  868  1  0.98168400  0.57848800  0.82544100  1
  C  869  1  0.98636400  0.55650000  0.80300800  1
  C  870  1  0.98621100  0.55675900  0.78051600  1
  C  871  1  0.97041200  0.62286200  0.84967300  1
  C  875  1  0.96970400  0.62398100  0.80290500  1
  C  879  1  0.99148100  0.53302000  0.80282600  1
  C  883  1  0.99109700  0.53348200  0.75694100  1
  C  889  1  0.98138300  0.21119100  0.82519200  1
  C  890  1  0.97591300  0.18880600  0.82467300  1
  C  891  1  0.97612400  0.16628900  0.80189900  1
  C  892  1  0.98169200  0.16633600  0.77982300  1
  C  893  1  0.98638900  0.18876600  0.78026800  1
  C  894  1  0.98623700  0.21125900  0.80301700  1
  C  895  1  0.97038700  0.14211000  0.79996300  1
  C  899  1  0.96967300  0.18888000  0.84784800  1
  C  903  1  0.99152300  0.18894500  0.75697000  1
  C  907  1  0.99114200  0.23483000  0.80331300  1
  C  913  1  0.98140300  0.16660500  0.41280100  1
  C  914  1  0.97592900  0.16712700  0.39093700  1
  C  915  1  0.97613400  0.18990100  0.39119500  1
  C  916  1  0.98170700  0.21197700  0.41331900  1
  C  917  1  0.98641200  0.21152800  0.43529900  1
  C  918  1  0.98625900  0.18877900  0.43504400  1
  C  919  1  0.97038600  0.19183900  0.36895400  1
  C  923  1  0.96969500  0.14395100  0.36783400  1
  C  927  1  0.99155400  0.23482600  0.45877600  1
  C  931  1  0.99116500  0.18848200  0.45831900  1
  C  937  1  0.48138500  0.39220100  0.23178000  1
  C  938  1  0.47591100  0.37033600  0.20939500  1
  C  939  1  0.47612000  0.37059400  0.18687800  1
  C  940  1  0.48168900  0.39271500  0.18692400  1
  C  941  1  0.48639200  0.41470000  0.20935400  1
  C  942  1  0.48624100  0.41444400  0.23184700  1
  C  943  1  0.47037900  0.34835000  0.16269900  1
  C  947  1  0.46967000  0.34723600  0.20946900  1
  C  951  1  0.49153000  0.43817500  0.20953100  1
  C  955  1  0.49114900  0.43771800  0.25541800  1
  C  961  1  0.48138500  0.76001200  0.18717900  1
  C  962  1  0.47592700  0.78240200  0.18770200  1
  C  963  1  0.47614200  0.80491800  0.21047700  1
  C  964  1  0.48169700  0.80486600  0.23255300  1
  C  965  1  0.48638000  0.78243200  0.23210400  1
  C  966  1  0.48622700  0.75994100  0.20935400  1
  C  967  1  0.47041900  0.82910000  0.21241500  1
  C  971  1  0.46969800  0.78233300  0.16452800  1
  C  975  1  0.49150200  0.78224900  0.25540300  1
  C  979  1  0.49111700  0.73636600  0.20905500  1
  C  985  1  0.48137100  0.80461000  0.59960300  1
  C  986  1  0.47591100  0.80408900  0.62147000  1
  C  987  1  0.47612200  0.78131400  0.62121000  1
  C  988  1  0.48168300  0.75923800  0.59908500  1
  C  989  1  0.48637100  0.75968500  0.57709900  1
  C  990  1  0.48621700  0.78243500  0.57735700  1
  C  991  1  0.47039300  0.77937700  0.64345400  1
  C  995  1  0.46968000  0.82726300  0.64457400  1
  C  999  1  0.49149800  0.73638600  0.55361900  1
  C  1003  1  0.49111100  0.78273300  0.55408100  1
  C  1009  1  0.65644800  0.63346700  0.09492800  1
  C  1010  1  0.67063000  0.65469900  0.11205000  1
  C  1011  1  0.69909500  0.65439400  0.11195500  1
  C  1012  1  0.71279900  0.63290000  0.09476100  1
  C  1013  1  0.69864300  0.61202400  0.07704500  1
  C  1014  1  0.67020200  0.61231100  0.07711800  1
  C  1015  1  0.71559600  0.67572000  0.12971000  1
  C  1019  1  0.65587000  0.67694400  0.13041600  1
  C  1023  1  0.71325200  0.58954400  0.05877200  1
  C  1027  1  0.65523800  0.59006200  0.05887000  1
  C  1033  1  0.65644200  0.42646200  0.35831700  1
  C  1034  1  0.67061800  0.42236100  0.33708700  1
  C  1035  1  0.69908300  0.42257300  0.33739000  1
  C  1036  1  0.71279300  0.42686700  0.35887900  1
  C  1037  1  0.69864100  0.43001700  0.37975400  1
  C  1038  1  0.67020000  0.42980000  0.37946900  1
  C  1039  1  0.71558000  0.41901100  0.31606500  1
  C  1043  1  0.65585400  0.41849000  0.31484700  1
  C  1047  1  0.71325300  0.43421800  0.40223000  1
  C  1051  1  0.65524000  0.43378900  0.40171700  1
  C  1057  1  0.65643400  0.89687100  0.56531900  1
  C  1058  1  0.67061000  0.87973800  0.56941500  1
  C  1059  1  0.69907500  0.87983700  0.56921900  1
  C  1060  1  0.71278500  0.89704500  0.56494200  1
  C  1061  1  0.69863500  0.91476900  0.56179300  1
  C  1062  1  0.67019200  0.91469300  0.56199400  1
  C  1063  1  0.71557200  0.86207100  0.57277500  1
  C  1067  1  0.65584600  0.86135600  0.57326600  1
  C  1071  1  0.71324800  0.93305400  0.55760600  1
  C  1075  1  0.65523500  0.93295100  0.55800300  1
  C  1081  1  0.15643700  0.33774400  0.91745500  1
  C  1082  1  0.17061200  0.31651200  0.90032400  1
  C  1083  1  0.19907600  0.31681300  0.90041400  1
  C  1084  1  0.21278900  0.33830100  0.91760900  1
  C  1085  1  0.19863800  0.35917800  0.93533300  1
  C  1086  1  0.17019700  0.35889500  0.93526700  1
  C  1087  1  0.21557100  0.29548600  0.88265000  1
  C  1091  1  0.15584500  0.29427500  0.88195500  1
  C  1095  1  0.21325300  0.38165200  0.95360700  1
  C  1099  1  0.15524000  0.38114400  0.95352600  1
  C  1105  1  0.15645300  0.54473600  0.65405300  1
  C  1106  1  0.17062900  0.54884100  0.67528500  1
  C  1107  1  0.19909400  0.54863100  0.67498300  1
  C  1108  1  0.21280300  0.54433800  0.65349300  1
  C  1109  1  0.19865000  0.54118500  0.63261800  1
  C  1110  1  0.17020900  0.54139800  0.63290200  1
  C  1111  1  0.21559100  0.55219400  0.69630800  1
  C  1115  1  0.15586500  0.55271000  0.69752400  1
  C  1119  1  0.21326300  0.53698700  0.61014300  1
  C  1123  1  0.15525000  0.53740400  0.61065200  1
  C  1129  1  0.15646500  0.07428700  0.44697800  1
  C  1130  1  0.17064500  0.09141300  0.44287700  1
  C  1131  1  0.19911000  0.09133000  0.44310600  1
  C  1132  1  0.21281500  0.07414400  0.44741600  1
  C  1133  1  0.19866000  0.05642200  0.45056700  1
  C  1134  1  0.17021900  0.05648400  0.45033700  1
  C  1135  1  0.21561100  0.10909500  0.43954900  1
  C  1139  1  0.15588500  0.10977300  0.43899000  1
  C  1143  1  0.21326700  0.03815600  0.45478500  1
  C  1147  1  0.15525600  0.03823000  0.45433000  1
  C  1153  1  0.21291800  0.54474500  0.91713500  1
  C  1154  1  0.19874600  0.54882900  0.89999400  1
  C  1155  1  0.17028300  0.54861700  0.90008700  1
  C  1156  1  0.15658200  0.54434600  0.91730000  1
  C  1157  1  0.17073100  0.54123600  0.93505100  1
  C  1158  1  0.19917000  0.54144800  0.93497800  1
  C  1159  1  0.15378200  0.55214800  0.88230600  1
  C  1163  1  0.21351000  0.55267500  0.88160900  1
  C  1167  1  0.15612200  0.53706800  0.95335100  1
  C  1171  1  0.21413100  0.53748900  0.95325600  1
  C  1177  1  0.21290200  0.07461700  0.65440800  1
  C  1178  1  0.19872600  0.09174900  0.67563200  1
  C  1179  1  0.17026300  0.09167000  0.67531600  1
  C  1180  1  0.15656600  0.07447400  0.65381600  1
  C  1181  1  0.17071900  0.05673000  0.63295400  1
  C  1182  1  0.19915600  0.05679100  0.63325400  1
  C  1183  1  0.15375800  0.10944500  0.69662700  1
  C  1187  1  0.21348600  0.11011300  0.69787700  1
  C  1191  1  0.15611400  0.03845000  0.61047600  1
  C  1195  1  0.21412300  0.03852100  0.61101600  1
  C  1201  1  0.21292000  0.33739800  0.44705000  1
  C  1202  1  0.19874400  0.31617000  0.44295300  1
  C  1203  1  0.17028100  0.31648400  0.44317700  1
  C  1204  1  0.15658400  0.33797900  0.44747000  1
  C  1205  1  0.17073700  0.35884100  0.45059000  1
  C  1206  1  0.19917600  0.35854800  0.45036700  1
  C  1207  1  0.15377400  0.29517100  0.43963500  1
  C  1211  1  0.21350200  0.29393000  0.43908500  1
  C  1215  1  0.15613200  0.38131500  0.45477400  1
  C  1219  1  0.21414300  0.38078400  0.45433500  1
  C  1225  1  0.71291100  0.42638400  0.09519700  1
  C  1226  1  0.69873200  0.42229500  0.11233300  1
  C  1227  1  0.67027000  0.42253200  0.11225100  1
  C  1228  1  0.65657500  0.42683200  0.09505400  1
  C  1229  1  0.67072800  0.42994600  0.07730700  1
  C  1230  1  0.69916700  0.42970900  0.07736900  1
  C  1231  1  0.65376200  0.41900000  0.13002900  1
  C  1235  1  0.71349100  0.41841700  0.13069900  1
  C  1239  1  0.65612500  0.43413900  0.05902300  1
  C  1243  1  0.71413400  0.43367200  0.05909800  1
  C  1249  1  0.71293500  0.89653800  0.35799200  1
  C  1250  1  0.69876000  0.87940100  0.33676700  1
  C  1251  1  0.67029700  0.87949500  0.33707400  1
  C  1252  1  0.65660100  0.89670800  0.35856200  1
  C  1253  1  0.67075200  0.91445400  0.37942400  1
  C  1254  1  0.69919000  0.91437800  0.37913600  1
  C  1255  1  0.65379200  0.86172000  0.31576300  1
  C  1259  1  0.71352000  0.86101700  0.31453300  1
  C  1263  1  0.65614500  0.93275100  0.40189300  1
  C  1267  1  0.71415400  0.93264900  0.40137200  1
  C  1273  1  0.71292100  0.63379200  0.56532300  1
  C  1274  1  0.69874800  0.65502000  0.56941400  1
  C  1275  1  0.67028600  0.65471300  0.56919200  1
  C  1276  1  0.65658500  0.63322300  0.56490300  1
  C  1277  1  0.67073200  0.61236000  0.56178800  1
  C  1278  1  0.69917100  0.61264800  0.56201300  1
  C  1279  1  0.65378600  0.67602800  0.57273000  1
  C  1283  1  0.71351400  0.67725700  0.57327700  1
  C  1287  1  0.65612100  0.58988900  0.55760700  1
  C  1291  1  0.71413200  0.59041100  0.55805100  1
  C  1297  1  0.95005800  0.62008100  0.98438200  1
  C  1298  1  0.93997000  0.64426500  0.99404500  1
  C  1299  1  0.92386500  0.65478300  0.01561400  1
  C  1300  1  0.92027400  0.64208600  0.02871100  1
  C  1301  1  0.93104700  0.61824800  0.01951900  1
  C  1302  1  0.94579100  0.60713000  0.99717000  1
  C  1303  1  0.91039900  0.67906200  0.02539600  1
  C  1307  1  0.94688000  0.65893200  0.98218500  1
  C  1311  1  0.92692800  0.60468200  0.03310800  1
  C  1315  1  0.95658000  0.58177500  0.98738100  1
  C  1321  1  0.95007300  0.32933900  0.37170800  1
  C  1322  1  0.93998400  0.31481800  0.34752700  1
  C  1323  1  0.92388100  0.32586700  0.33700500  1
  C  1324  1  0.92029300  0.35166100  0.34970000  1
  C  1325  1  0.93106900  0.36630900  0.37353500  1
  C  1326  1  0.94581100  0.35508100  0.38465900  1
  C  1327  1  0.91041500  0.31136800  0.31272700  1
  C  1331  1  0.94689500  0.28829100  0.33286100  1
  C  1335  1  0.92695300  0.39346600  0.38709900  1
  C  1339  1  0.95660400  0.37064800  0.41001000  1
  C  1345  1  0.95005800  0.00738700  0.66246900  1
  C  1346  1  0.93997000  0.99773000  0.67699500  1
  C  1347  1  0.92386400  0.97616100  0.66594800  1
  C  1348  1  0.92027100  0.96306000  0.64015400  1
  C  1349  1  0.93104700  0.97224300  0.62550100  1
  C  1350  1  0.94579200  0.99459300  0.63672900  1
  C  1351  1  0.91039900  0.96638400  0.68044900  1
  C  1355  1  0.94688500  0.00959300  0.70352100  1
  C  1359  1  0.92692800  0.95865000  0.59834700  1
  C  1363  1  0.95658500  0.00437600  0.62115800  1
  C  1369  1  0.45004600  0.35111400  0.02796700  1
  C  1370  1  0.43995900  0.32693000  0.01830800  1
  C  1371  1  0.42385600  0.31640700  0.99673800  1
  C  1372  1  0.42026600  0.32910200  0.98363900  1
  C  1373  1  0.43103900  0.35293800  0.99282400  1
  C  1374  1  0.44578100  0.36406300  0.01517700  1
  C  1375  1  0.41039200  0.29213000  0.98695900  1
  C  1379  1  0.44687400  0.31226600  0.03016900  1
  C  1383  1  0.42692100  0.36650200  0.97923200  1
  C  1387  1  0.45657100  0.38941600  0.02496000  1
  C  1393  1  0.45006800  0.64187500  0.64066600  1
  C  1394  1  0.43997400  0.65639900  0.66484700  1
  C  1395  1  0.42387200  0.64535000  0.67536800  1
  C  1396  1  0.42028400  0.61955600  0.66267400  1
  C  1397  1  0.43106300  0.60490700  0.63884000  1
  C  1398  1  0.44580700  0.61613400  0.62771700  1
  C  1399  1  0.41040200  0.65984900  0.69964400  1
  C  1403  1  0.44688400  0.68292600  0.67951100  1
  C  1407  1  0.42694700  0.57775000  0.62527700  1
  C  1411  1  0.45660100  0.60056500  0.60236600  1
  C  1417  1  0.45008300  0.96380700  0.34990600  1
  C  1418  1  0.43999200  0.97346900  0.33538500  1
  C  1419  1  0.42389000  0.99504100  0.34643800  1
  C  1420  1  0.42030200  0.00813700  0.37223200  1
  C  1421  1  0.43107600  0.99894800  0.38687900  1
  C  1422  1  0.44581900  0.97659400  0.37564500  1
  C  1423  1  0.41042400  0.00482300  0.33194200  1
  C  1427  1  0.44690200  0.96161000  0.30885800  1
  C  1431  1  0.42695900  0.01253700  0.41403500  1
  C  1435  1  0.45660700  0.96680700  0.39121200  1
  C  1441  1  0.91931800  0.35043400  0.02800600  1
  C  1442  1  0.92939200  0.32624700  0.01834700  1
  C  1443  1  0.94547600  0.31571600  0.99676500  1
  C  1444  1  0.94910900  0.32843600  0.98369700  1
  C  1445  1  0.93836700  0.35228600  0.99289900  1
  C  1446  1  0.92360400  0.36339700  0.01523500  1
  C  1447  1  0.95887300  0.29140000  0.98693400  1
  C  1451  1  0.92250800  0.31160000  0.03023500  1
  C  1455  1  0.94253800  0.36587200  0.97933500  1
  C  1459  1  0.91281800  0.38875300  0.02502700  1
  C  1465  1  0.91931900  0.64257700  0.64135800  1
  C  1466  1  0.92939100  0.65709900  0.66554700  1
  C  1467  1  0.94547500  0.64604600  0.67607500  1
  C  1468  1  0.94910800  0.62025700  0.66335000  1
  C  1469  1  0.93836700  0.60561200  0.63950000  1
  C  1470  1  0.92360400  0.61684100  0.62839100  1
  C  1471  1  0.95887100  0.66052600  0.70039200  1
  C  1475  1  0.92250500  0.68363300  0.68019800  1
  C  1479  1  0.94253700  0.57846400  0.62591000  1
  C  1483  1  0.91281800  0.60128200  0.60303500  1
  C  1489  1  0.91933600  0.96380100  0.34919800  1
  C  1490  1  0.92941200  0.97346800  0.33467800  1
  C  1491  1  0.94549900  0.99504800  0.34573500  1
  C  1492  1  0.94913200  0.00810800  0.37152400  1
  C  1493  1  0.93838800  0.99890200  0.38616700  1
  C  1494  1  0.92362200  0.97656400  0.37493300  1
  C  1495  1  0.95889700  0.00488900  0.33126000  1
  C  1499  1  0.92252500  0.96159000  0.30814400  1
  C  1503  1  0.94255800  0.01245700  0.41331600  1
  C  1507  1  0.91283100  0.96676700  0.39049000  1
  C  1513  1  0.41933600  0.62077400  0.98437600  1
  C  1514  1  0.42940500  0.64496300  0.99404100  1
  C  1515  1  0.44549200  0.65549200  0.01562000  1
  C  1516  1  0.44912700  0.64276800  0.02868500  1
  C  1517  1  0.43838900  0.61891800  0.01948100  1
  C  1518  1  0.42362500  0.60780700  0.99714300  1
  C  1519  1  0.45888400  0.67981000  0.02545600  1
  C  1523  1  0.42251500  0.65961200  0.98215500  1
  C  1527  1  0.44256200  0.60532800  0.03303900  1
  C  1531  1  0.41284000  0.58245000  0.98734800  1
  C  1537  1  0.41932200  0.32861000  0.37100300  1
  C  1538  1  0.42939500  0.31408700  0.34681500  1
  C  1539  1  0.44548200  0.32514100  0.33629000  1
  C  1540  1  0.44911300  0.35093100  0.34901500  1
  C  1541  1  0.43836900  0.36557600  0.37286400  1
  C  1542  1  0.42360700  0.35434600  0.38397100  1
  C  1543  1  0.45888000  0.31066200  0.31197600  1
  C  1547  1  0.42251500  0.28755200  0.33216700  1
  C  1551  1  0.44253800  0.39272400  0.38645400  1
  C  1555  1  0.41281600  0.36990600  0.40932600  1
  C  1561  1  0.41930600  0.00741300  0.66316700  1
  C  1562  1  0.42937700  0.99775300  0.67769300  1
  C  1563  1  0.44546200  0.97616900  0.66664000  1
  C  1564  1  0.44909400  0.96310200  0.64085300  1
  C  1565  1  0.43835300  0.97230500  0.62620500  1
  C  1566  1  0.42359100  0.99464300  0.63743200  1
  C  1567  1  0.45885800  0.96633700  0.68112400  1
  C  1571  1  0.42249500  0.00964100  0.70422800  1
  C  1575  1  0.44252400  0.95874300  0.59905600  1
  C  1579  1  0.41280600  0.00443600  0.62186900  1
  C  1585  1  0.84133200  0.51767500  0.11562800  1
  C  1586  1  0.82597800  0.53767400  0.13327800  1
  C  1587  1  0.82595200  0.56019200  0.13316200  1
  C  1588  1  0.84129500  0.56238100  0.11541100  1
  C  1589  1  0.85850500  0.54313000  0.09923300  1
  C  1590  1  0.85851100  0.52058500  0.09933100  1
  C  1591  1  0.80917200  0.58109600  0.15129800  1
  C  1595  1  0.80923600  0.53507700  0.15153600  1
  C  1599  1  0.87634700  0.54637200  0.08207000  1
  C  1603  1  0.87632200  0.50010600  0.08224200  1
  C  1609  1  0.84128400  0.56294900  0.47413700  1
  C  1610  1  0.82588300  0.56060000  0.45416200  1
  C  1611  1  0.82586000  0.53797800  0.43163300  1
  C  1612  1  0.84124400  0.51804600  0.42941100  1
  C  1613  1  0.85849600  0.52111900  0.44863600  1
  C  1614  1  0.85851200  0.54375600  0.47118700  1
  C  1615  1  0.80904100  0.53521300  0.41075200  1
  C  1619  1  0.80909400  0.58144500  0.45679600  1
  C  1623  1  0.87637600  0.50072400  0.44536000  1
  C  1627  1  0.87639000  0.54715400  0.49162900  1
  C  1633  1  0.84120100  0.87615400  0.42881000  1
  C  1634  1  0.82570200  0.85859600  0.43119000  1
  C  1635  1  0.82567700  0.85868300  0.45380900  1
  C  1636  1  0.84115300  0.87632400  0.47371000  1
  C  1637  1  0.85848100  0.89241000  0.47060800  1
  C  1638  1  0.85850400  0.89232500  0.44797100  1
  C  1639  1  0.80876300  0.84063800  0.45660600  1
  C  1643  1  0.80881500  0.84046200  0.41038100  1
  C  1647  1  0.87643100  0.90946100  0.49097400  1
  C  1651  1  0.87647400  0.90929200  0.44453900  1
  C  1657  1  0.34126600  0.45356000  0.89679000  1
  C  1658  1  0.32585100  0.43359300  0.87917300  1
  C  1659  1  0.32582500  0.41106100  0.87926200  1
  C  1660  1  0.34122400  0.40883100  0.89696000  1
  C  1661  1  0.35848900  0.42804800  0.91310100  1
  C  1662  1  0.35850400  0.45060200  0.91302100  1
  C  1663  1  0.30899100  0.39018600  0.86115500  1
  C  1667  1  0.30904900  0.43623500  0.86097400  1
  C  1671  1  0.37638200  0.42476200  0.93020500  1
  C  1675  1  0.37639800  0.47103600  0.93005500  1
  C  1681  1  0.34127200  0.40823900  0.53824500  1
  C  1682  1  0.32585900  0.41060000  0.55821800  1
  C  1683  1  0.32583500  0.43322500  0.58074400  1
  C  1684  1  0.34123200  0.45315000  0.58296400  1
  C  1685  1  0.35849400  0.45006600  0.56374100  1
  C  1686  1  0.35850800  0.42742600  0.54119300  1
  C  1687  1  0.30900300  0.43600200  0.60162300  1
  C  1691  1  0.30905700  0.38976200  0.55558700  1
  C  1695  1  0.37638400  0.47045400  0.56701600  1
  C  1699  1  0.37639800  0.42401700  0.52075500  1
  C  1705  1  0.34133000  0.09504000  0.58354700  1
  C  1706  1  0.32597400  0.11268900  0.58119600  1
  C  1707  1  0.32595000  0.11257400  0.55856200  1
  C  1708  1  0.34129600  0.09482400  0.53862500  1
  C  1709  1  0.35850600  0.07864700  0.54169800  1
  C  1710  1  0.35851000  0.07874500  0.56434200  1
  C  1711  1  0.30917000  0.13070900  0.55579300  1
  C  1715  1  0.30923000  0.13094800  0.60205200  1
  C  1719  1  0.37635000  0.06148400  0.52129400  1
  C  1723  1  0.37632000  0.06165800  0.56773400  1
  C  1729  1  0.02799700  0.40814600  0.89689000  1
  C  1730  1  0.04339500  0.41038800  0.87919800  1
  C  1731  1  0.04344300  0.43295600  0.87918000  1
  C  1732  1  0.02811500  0.45295000  0.89686900  1
  C  1733  1  0.01088800  0.44999600  0.91310900  1
  C  1734  1  0.01080300  0.42739500  0.91309600  1
  C  1735  1  0.06023100  0.43560400  0.86097600  1
  C  1739  1  0.06015700  0.38949100  0.86102900  1
  C  1743  1  0.99312200  0.47048400  0.93025400  1
  C  1747  1  0.99288000  0.42409100  0.93017100  1
  C  1753  1  0.02790000  0.09491400  0.53805300  1
  C  1754  1  0.04318400  0.11267300  0.55803900  1
  C  1755  1  0.04323500  0.11265800  0.58060700  1
  C  1756  1  0.02801300  0.09487700  0.58284800  1
  C  1757  1  0.01088100  0.07856800  0.56359900  1
  C  1758  1  0.01081100  0.07859900  0.54102200  1
  C  1759  1  0.05991800  0.13092400  0.60151000  1
  C  1763  1  0.05982600  0.13095000  0.55538300  1
  C  1767  1  0.99319900  0.06133100  0.56687600  1
  C  1771  1  0.99302000  0.06143000  0.52057400  1
  C  1777  1  0.02793300  0.45377000  0.58362400  1
  C  1778  1  0.04325100  0.43380400  0.58140100  1
  C  1779  1  0.04330100  0.41122500  0.55882900  1
  C  1780  1  0.02804900  0.40895700  0.53881100  1
  C  1781  1  0.01088500  0.42818100  0.54174600  1
  C  1782  1  0.01080500  0.45076600  0.56435000  1
  C  1783  1  0.06001200  0.39033800  0.55619900  1
  C  1787  1  0.05993000  0.43649200  0.60232800  1
  C  1791  1  0.99317600  0.42487600  0.52123800  1
  C  1795  1  0.99295600  0.47118300  0.56763400  1
  C  1801  1  0.52795200  0.56303500  0.11547400  1
  C  1802  1  0.54329000  0.56079600  0.13319800  1
  C  1803  1  0.54334000  0.53821900  0.13319700  1
  C  1804  1  0.52807000  0.51821000  0.11545400  1
  C  1805  1  0.51088900  0.52116000  0.09918300  1
  C  1806  1  0.51081000  0.54377000  0.09921200  1
  C  1807  1  0.56006800  0.53557500  0.15143300  1
  C  1811  1  0.55998600  0.58171200  0.15143000  1
  C  1815  1  0.49316700  0.50066200  0.08198900  1
  C  1819  1  0.49294200  0.54706700  0.08209900  1
  C  1825  1  0.52800200  0.87630300  0.47434600  1
  C  1826  1  0.54340300  0.85861400  0.45441300  1
  C  1827  1  0.54345300  0.85859600  0.43182800  1
  C  1828  1  0.52812500  0.87628300  0.42952100  1
  C  1829  1  0.51089300  0.89251900  0.44871300  1
  C  1830  1  0.51080600  0.89250700  0.47130000  1
  C  1831  1  0.56024500  0.84039500  0.41097800  1
  C  1835  1  0.56016800  0.84044700  0.45714300  1
  C  1839  1  0.49312500  0.90966400  0.44536900  1
  C  1843  1  0.49287800  0.90957900  0.49167800  1
  C  1849  1  0.52794200  0.51743300  0.42874700  1
  C  1850  1  0.54327200  0.53739400  0.43097300  1
  C  1851  1  0.54332400  0.55997500  0.45354500  1
  C  1852  1  0.52806200  0.56224900  0.47355900  1
  C  1853  1  0.51088700  0.54302900  0.47062100  1
  C  1854  1  0.51080600  0.52044400  0.44801900  1
  C  1855  1  0.56004600  0.58085400  0.45617500  1
  C  1859  1  0.55996000  0.53470100  0.41005000  1
  C  1863  1  0.49316700  0.54634200  0.49112700  1
  C  1867  1  0.49294600  0.50003300  0.44473400  1
  N  743  1  0.88905300  0.82574300  0.25373700  1
  N  744  1  0.88822800  0.73787500  0.16615400  1
  N  767  1  0.88905400  0.39304600  0.16605600  1
  N  768  1  0.88823400  0.39330100  0.25391000  1
  N  791  1  0.88905100  0.73803300  0.59875300  1
  N  792  1  0.88821600  0.82563500  0.59850500  1
  N  815  1  0.38904700  0.14546200  0.75860900  1
  N  816  1  0.38822000  0.23331100  0.84621000  1
  N  839  1  0.38905300  0.57816900  0.84632500  1
  N  840  1  0.38823400  0.57790000  0.75846500  1
  N  863  1  0.38905900  0.23315700  0.41360300  1
  N  864  1  0.38824200  0.14556600  0.41387200  1
  N  887  1  0.98069100  0.57855600  0.75906000  1
  N  888  1  0.98085700  0.57763400  0.84632700  1
  N  911  1  0.98069400  0.23271900  0.84626800  1
  N  912  1  0.98085900  0.14545100  0.75808200  1
  N  935  1  0.98071300  0.14552900  0.41325100  1
  N  936  1  0.98086800  0.23372000  0.41417900  1
  N  959  1  0.48069500  0.39265500  0.25330800  1
  N  960  1  0.48085300  0.39357200  0.16603900  1
  N  983  1  0.48069700  0.73848700  0.16610300  1
  N  984  1  0.48087100  0.82575000  0.25429500  1
  N  1007  1  0.48068600  0.82568700  0.59915400  1
  N  1008  1  0.48085500  0.73749500  0.59822600  1
  N  1031  1  0.63043100  0.63182100  0.09819400  1
  N  1032  1  0.73883400  0.63100100  0.09785600  1
  N  1055  1  0.63042500  0.43137400  0.35997100  1
  N  1056  1  0.73882600  0.43186100  0.36077700  1
  N  1079  1  0.63041700  0.89361200  0.56040500  1
  N  1080  1  0.73882000  0.89395300  0.55995600  1
  N  1103  1  0.13041800  0.33939800  0.91419900  1
  N  1104  1  0.23882100  0.34019600  0.91451000  1
  N  1127  1  0.13043400  0.53982200  0.65240000  1
  N  1128  1  0.23883700  0.53934400  0.65159500  1
  N  1151  1  0.13044800  0.07755400  0.45189500  1
  N  1152  1  0.23884500  0.07724700  0.45242200  1
  N  1175  1  0.23891500  0.53977400  0.91384300  1
  N  1176  1  0.13057000  0.53930000  0.91417900  1
  N  1199  1  0.23889700  0.07791700  0.65273500  1
  N  1200  1  0.13055800  0.07760800  0.65188700  1
  N  1223  1  0.23891700  0.33906800  0.45201900  1
  N  1224  1  0.13057400  0.33990700  0.45252200  1
  N  1247  1  0.73890400  0.43135900  0.09850100  1
  N  1248  1  0.63056600  0.43189200  0.09818200  1
  N  1271  1  0.73893300  0.89324300  0.35966500  1
  N  1272  1  0.63058600  0.89358900  0.36048700  1
  N  1295  1  0.73891800  0.63211500  0.56035300  1
  N  1296  1  0.63057200  0.63129900  0.55985200  1
  N  1319  1  0.96520500  0.60947900  0.96412100  1
  N  1320  1  0.90451600  0.65134700  0.04856100  1
  N  1343  1  0.96521300  0.31968300  0.38231900  1
  N  1344  1  0.90453400  0.36224900  0.34043800  1
  N  1367  1  0.96520000  0.02765200  0.67212300  1
  N  1368  1  0.90450800  0.94321200  0.62957100  1
  N  1391  1  0.46518600  0.36172500  0.04823300  1
  N  1392  1  0.40450600  0.31983900  0.96378800  1
  N  1415  1  0.46521000  0.65153200  0.63005700  1
  N  1416  1  0.40452600  0.60896800  0.67193700  1
  N  1439  1  0.46522800  0.94354400  0.34024700  1
  N  1440  1  0.40454400  0.02798800  0.38282200  1
  N  1463  1  0.90416000  0.36101900  0.04825700  1
  N  1464  1  0.96486700  0.31915800  0.96385000  1
  N  1487  1  0.90416400  0.65224400  0.63077400  1
  N  1488  1  0.96486600  0.60968500  0.67262400  1
  N  1511  1  0.90417900  0.94355000  0.33952900  1
  N  1512  1  0.96489300  0.02795400  0.38209800  1
  N  1535  1  0.40417900  0.61018700  0.96412300  1
  N  1536  1  0.46488600  0.65204500  0.04853100  1
  N  1559  1  0.40416500  0.31894400  0.38158800  1
  N  1560  1  0.46487200  0.36150300  0.33973900  1
  N  1583  1  0.40414800  0.02766500  0.67283100  1
  N  1584  1  0.46485200  0.94325500  0.63028300  1
  N  1607  1  0.83793000  0.49592400  0.11409800  1
  N  1608  1  0.83788100  0.58250300  0.11370900  1
  N  1631  1  0.83789300  0.58316000  0.49589700  1
  N  1632  1  0.83783500  0.49622600  0.40928100  1
  N  1655  1  0.83783900  0.87770000  0.40859600  1
  N  1656  1  0.83776100  0.87801400  0.49553100  1
  N  1679  1  0.33788000  0.47532200  0.89834100  1
  N  1680  1  0.33781600  0.38869900  0.89864700  1
  N  1703  1  0.33789000  0.38802100  0.51649100  1
  N  1704  1  0.33782800  0.47497200  0.60309100  1
  N  1727  1  0.33792600  0.09351100  0.60376700  1
  N  1728  1  0.33788400  0.09312100  0.51679800  1
  N  1751  1  0.03139500  0.38798800  0.89853600  1
  N  1752  1  0.03153500  0.47472500  0.89846200  1
  N  1775  1  0.03132600  0.09329700  0.51626300  1
  N  1776  1  0.03144700  0.09326700  0.60302000  1
  N  1799  1  0.03135000  0.47556900  0.60378700  1
  N  1800  1  0.03148300  0.38877900  0.51703500  1
  N  1823  1  0.53135800  0.58320600  0.11385400  1
  N  1824  1  0.53149600  0.49643000  0.11384800  1
  N  1847  1  0.53139800  0.87795000  0.49614900  1
  N  1848  1  0.53154600  0.87787700  0.40934000  1
  N  1871  1  0.53135600  0.49563500  0.40858600  1
  N  1872  1  0.53149400  0.58242800  0.49533500  1
  O  8  1  0.90815400  0.71507200  0.11282000  1
  O  15  1  0.77311100  0.59305600  0.08959200  1
  O  17  1  0.83469600  0.69165200  0.14584500  1
  O  18  1  0.79938500  0.66980600  0.09684800  1
  O  38  1  0.90816000  0.36278300  0.27671000  1
  O  45  1  0.77310300  0.46154100  0.39872200  1
  O  47  1  0.83468000  0.41921100  0.30013200  1
  O  48  1  0.79938300  0.39205000  0.32196800  1
  O  68  1  0.90813500  0.87895200  0.62902900  1
  O  75  1  0.77308300  0.90221300  0.53027200  1
  O  77  1  0.83466800  0.84594200  0.57258400  1
  O  78  1  0.79938500  0.89496100  0.59976300  1
  O  98  1  0.40813300  0.25610800  0.89953200  1
  O  105  1  0.27310400  0.37814000  0.92277600  1
  O  107  1  0.33466900  0.27953100  0.86651200  1
  O  108  1  0.29937000  0.30138100  0.91550600  1
  O  128  1  0.40816300  0.60843300  0.73566300  1
  O  135  1  0.27311200  0.50966600  0.61365000  1
  O  137  1  0.33470100  0.55199400  0.71224500  1
  O  138  1  0.29939000  0.57914900  0.69040500  1
  O  158  1  0.40816900  0.09224900  0.38335700  1
  O  165  1  0.27311800  0.06899200  0.48211700  1
  O  167  1  0.33469500  0.12525500  0.43979200  1
  O  168  1  0.29940600  0.07624500  0.41262300  1
  O  188  1  0.96007800  0.60777100  0.90000800  1
  O  195  1  0.09651400  0.50948100  0.92236300  1
  O  197  1  0.03444100  0.55237000  0.86658100  1
  O  198  1  0.06981000  0.57897800  0.91527900  1
  O  218  1  0.96007900  0.09175900  0.73454100  1
  O  225  1  0.09648400  0.06942600  0.61387900  1
  O  227  1  0.03443500  0.12519600  0.71257500  1
  O  228  1  0.06980800  0.07651200  0.69046800  1
  O  248  1  0.96007200  0.25726800  0.38401400  1
  O  255  1  0.09649800  0.37791200  0.48233200  1
  O  257  1  0.03442700  0.27922300  0.43941400  1
  O  258  1  0.06982600  0.30131400  0.41283500  1
  O  278  1  0.46005900  0.36342300  0.11234700  1
  O  285  1  0.59649400  0.46171400  0.08999300  1
  O  287  1  0.53443400  0.41881100  0.14577100  1
  O  288  1  0.56981100  0.39221700  0.09709000  1
  O  308  1  0.46009700  0.87943300  0.27784000  1
  O  315  1  0.59652400  0.90177600  0.39848900  1
  O  317  1  0.53445800  0.84600100  0.29981400  1
  O  318  1  0.56983000  0.89469500  0.32190600  1
  O  338  1  0.46008100  0.71394800  0.62836900  1
  O  345  1  0.59649600  0.59329600  0.53004100  1
  O  347  1  0.53444400  0.69199200  0.57297100  1
  O  348  1  0.56982600  0.66989000  0.59954000  1
  O  368  1  0.96078900  0.25568200  0.89955300  1
  O  375  1  0.09607100  0.37745500  0.92250700  1
  O  377  1  0.03461400  0.27871300  0.86653700  1
  O  378  1  0.07002700  0.30078600  0.91555500  1
  O  398  1  0.96079300  0.60885700  0.73609500  1
  O  405  1  0.09609900  0.51005600  0.61434700  1
  O  407  1  0.03463200  0.55282100  0.71306200  1
  O  408  1  0.07002900  0.57978400  0.69099800  1
  O  428  1  0.96081300  0.09225300  0.38293900  1
  O  435  1  0.09616700  0.06932900  0.48171700  1
  O  437  1  0.03464200  0.12526100  0.43899000  1
  O  438  1  0.06999700  0.07616700  0.41196800  1
  O  458  1  0.46080800  0.71552200  0.11282200  1
  O  465  1  0.59609600  0.59377200  0.08992300  1
  O  467  1  0.53462900  0.69249800  0.14585000  1
  O  468  1  0.57002800  0.67041000  0.09681800  1
  O  488  1  0.46079000  0.36233200  0.27627000  1
  O  495  1  0.59609200  0.46113700  0.39802600  1
  O  497  1  0.53461500  0.41837900  0.29930100  1
  O  498  1  0.57002200  0.39142000  0.32137100  1
  O  518  1  0.46078200  0.87895900  0.62946500  1
  O  525  1  0.59606800  0.90191600  0.53065300  1
  O  527  1  0.53462100  0.84595100  0.57342500  1
  O  528  1  0.57002400  0.89496800  0.60037400  1
  O  548  1  0.90971600  0.36302100  0.11241000  1
  O  555  1  0.77299700  0.46129300  0.09032400  1
  O  557  1  0.83501100  0.41803100  0.14583000  1
  O  558  1  0.79954200  0.39156900  0.09706800  1
  O  578  1  0.90972200  0.87940400  0.27734800  1
  O  585  1  0.77309300  0.90148300  0.39777700  1
  O  587  1  0.83502100  0.84597100  0.29892500  1
  O  588  1  0.79950800  0.89465700  0.32124200  1
  O  608  1  0.90972000  0.71441400  0.62879100  1
  O  615  1  0.77306300  0.59399700  0.53047900  1
  O  617  1  0.83502400  0.69283200  0.57377800  1
  O  618  1  0.79950400  0.67053100  0.60017300  1
  O  638  1  0.40972500  0.60820200  0.89997000  1
  O  645  1  0.27306500  0.50990200  0.92208700  1
  O  647  1  0.33501200  0.55320200  0.86655900  1
  O  648  1  0.29950100  0.57959900  0.91524700  1
  O  668  1  0.40970500  0.09181700  0.73498600  1
  O  675  1  0.27299300  0.06974100  0.61462500  1
  O  677  1  0.33500400  0.12524200  0.71339500  1
  O  678  1  0.29953100  0.07648100  0.69109200  1
  O  698  1  0.40971700  0.25677300  0.38356400  1
  O  705  1  0.27306500  0.37717800  0.48190600  1
  O  707  1  0.33501600  0.27834600  0.43857100  1
  O  708  1  0.29950500  0.30066200  0.41218900  1
