# generated using pymatgen
data_H17(C14N3)2
_symmetry_space_group_name_H-M   'P 1'
_cell_length_a   53.75480000
_cell_length_b   61.65840000
_cell_length_c   61.65550000
_cell_angle_alpha   89.97270000
_cell_angle_beta   90.06680000
_cell_angle_gamma   90.03340000
_symmetry_Int_Tables_number   1
_chemical_formula_structural   H17(C14N3)2
_chemical_formula_sum   'H272 C448 N96'
_cell_volume   204352.94795748
_cell_formula_units_Z   16
loop_
 _symmetry_equiv_pos_site_id
 _symmetry_equiv_pos_as_xyz
  1  'x, y, z'
loop_
 _atom_site_type_symbol
 _atom_site_label
 _atom_site_symmetry_multiplicity
 _atom_site_fract_x
 _atom_site_fract_y
 _atom_site_fract_z
 _atom_site_occupancy
  H  49  1  0.88560800  0.04130500  0.89627000  1
  H  50  1  0.91324200  0.02238600  0.91985000  1
  H  51  1  0.93719000  0.09278600  0.89156400  1
  H  52  1  0.96484800  0.07364400  0.91533700  1
  H  53  1  0.97249000  0.02133400  0.89370300  1
  H  54  1  0.00513400  0.99166000  0.89319000  1
  H  55  1  0.98952100  0.00595500  0.95631900  1
  H  56  1  0.99035000  0.00628600  0.99461600  1
  H  57  1  0.92230500  0.06441600  0.95572000  1
  H  58  1  0.92278100  0.06436700  0.99677500  1
  H  59  1  0.91962900  0.01940300  0.03833700  1
  H  60  1  0.89255000  0.03749900  0.06293600  1
  H  61  1  0.96194300  0.07652300  0.03148600  1
  H  62  1  0.93466300  0.09491700  0.05607200  1
  H  63  1  0.97440400  0.02040900  0.05773400  1
  H  64  1  0.00651000  0.99026800  0.05725300  1
  H  65  1  0.05190200  0.94365900  0.95421400  1
  H  66  1  0.05237400  0.94361800  0.99527500  1
  H  67  1  0.06717900  0.97975700  0.03390900  1
  H  68  1  0.08674100  0.95557500  0.05917400  1
  H  69  1  0.00325900  0.94015900  0.03343500  1
  H  70  1  0.02258900  0.91599400  0.05850800  1
  H  71  1  0.00066000  0.94506000  0.91040300  1
  H  72  1  0.02000300  0.92202800  0.88431900  1
  H  73  1  0.08858500  0.95371100  0.89499600  1
  H  74  1  0.06896300  0.97693000  0.92098800  1
  H  79  1  0.05618600  0.90765700  0.08316500  1
  H  80  1  0.87781800  0.07046200  0.07919300  1
  H  81  1  0.87421900  0.07352000  0.87694200  1
  H  82  1  0.05566900  0.91377300  0.86136100  1
  H  131  1  0.38519900  0.97370000  0.55509800  1
  H  132  1  0.41281500  0.99266100  0.53157500  1
  H  133  1  0.43692800  0.92240500  0.56008800  1
  H  134  1  0.46456700  0.94159100  0.53636500  1
  H  135  1  0.47221400  0.99380400  0.55792300  1
  H  136  1  0.50487200  0.02351200  0.55848700  1
  H  137  1  0.48911300  0.00932600  0.49533500  1
  H  138  1  0.49016800  0.00896800  0.45703300  1
  H  139  1  0.42194200  0.95079300  0.49574400  1
  H  140  1  0.42243600  0.95093900  0.45468900  1
  H  141  1  0.41927000  0.99595400  0.41332000  1
  H  142  1  0.39216900  0.97784800  0.38866100  1
  H  143  1  0.46173500  0.93892300  0.42002400  1
  H  144  1  0.43444300  0.92052300  0.39538700  1
  H  145  1  0.47409700  0.99494700  0.39389700  1
  H  146  1  0.50630600  0.02503900  0.39442900  1
  H  147  1  0.55174000  0.07151900  0.49762300  1
  H  148  1  0.55232800  0.07158000  0.45655500  1
  H  149  1  0.56698000  0.03541300  0.41777700  1
  H  150  1  0.58660400  0.05958100  0.39255400  1
  H  151  1  0.50328700  0.07521700  0.41834500  1
  H  152  1  0.52267900  0.09936600  0.39331600  1
  H  153  1  0.50037500  0.07023600  0.54110700  1
  H  154  1  0.51974500  0.09323900  0.56726600  1
  H  155  1  0.58818500  0.06128600  0.55699800  1
  H  156  1  0.56854100  0.03810300  0.53093000  1
  H  161  1  0.55624400  0.10765900  0.36867200  1
  H  162  1  0.37759800  0.94494200  0.37214900  1
  H  163  1  0.37385600  0.94147300  0.57443200  1
  H  164  1  0.55538600  0.10127500  0.59046900  1
  H  213  1  0.63547400  0.17865700  0.69230300  1
  H  214  1  0.66318200  0.20227800  0.71108700  1
  H  215  1  0.68701800  0.17351200  0.64090900  1
  H  216  1  0.71474900  0.19733000  0.65991500  1
  H  217  1  0.72255300  0.17601500  0.71226000  1
  H  218  1  0.75526100  0.17565400  0.74194200  1
  H  219  1  0.73948700  0.23870600  0.72737100  1
  H  220  1  0.74013300  0.27700300  0.72706500  1
  H  221  1  0.67233200  0.23784800  0.66875900  1
  H  222  1  0.67275600  0.27890700  0.66868000  1
  H  223  1  0.66851700  0.31984000  0.71292800  1
  H  224  1  0.64135600  0.34394000  0.69411800  1
  H  225  1  0.71285200  0.31396500  0.65692900  1
  H  226  1  0.68555000  0.33804900  0.63784800  1
  H  227  1  0.72412300  0.34002400  0.71251600  1
  H  228  1  0.75634200  0.33972600  0.74262200  1
  H  229  1  0.80204000  0.23684700  0.78966100  1
  H  230  1  0.80239700  0.27791700  0.78961900  1
  H  231  1  0.81782100  0.31485600  0.75367200  1
  H  232  1  0.83774700  0.34065100  0.77704800  1
  H  233  1  0.75301200  0.31798400  0.79194700  1
  H  234  1  0.77272200  0.34367900  0.81529500  1
  H  235  1  0.75079000  0.19310700  0.78848900  1
  H  236  1  0.77015800  0.16691200  0.81144700  1
  H  237  1  0.83858700  0.17734100  0.77951800  1
  H  238  1  0.81894000  0.20345000  0.75637600  1
  H  243  1  0.80678600  0.36954700  0.82117000  1
  H  244  1  0.62675300  0.35880400  0.66016400  1
  H  245  1  0.62403000  0.15914700  0.66022400  1
  H  246  1  0.80575100  0.14371100  0.81943200  1
  H  295  1  0.13545500  0.83618800  0.75959100  1
  H  296  1  0.16309000  0.81263100  0.74074900  1
  H  297  1  0.18732200  0.84156300  0.81080700  1
  H  298  1  0.21498900  0.81779800  0.79174200  1
  H  299  1  0.22257900  0.83901000  0.73941200  1
  H  300  1  0.25522300  0.83939300  0.70974100  1
  H  301  1  0.23951500  0.77633400  0.72433800  1
  H  302  1  0.24015300  0.73802300  0.72456800  1
  H  303  1  0.17252000  0.77710600  0.78294900  1
  H  304  1  0.17293700  0.73604700  0.78297700  1
  H  305  1  0.16850000  0.69515200  0.73872800  1
  H  306  1  0.14136200  0.67107700  0.75756700  1
  H  307  1  0.21303200  0.70104900  0.79469700  1
  H  308  1  0.18574900  0.67698200  0.81380700  1
  H  309  1  0.22414300  0.67499500  0.73909400  1
  H  310  1  0.25632600  0.67531100  0.70902300  1
  H  311  1  0.30186300  0.77826000  0.66200700  1
  H  312  1  0.30224800  0.73719500  0.66202500  1
  H  313  1  0.31794100  0.70036800  0.69787100  1
  H  314  1  0.33786000  0.67464400  0.67447500  1
  H  315  1  0.25293500  0.69689300  0.65976600  1
  H  316  1  0.27263200  0.67127000  0.63639900  1
  H  317  1  0.25064900  0.82194500  0.66321100  1
  H  318  1  0.26995900  0.84813400  0.64022400  1
  H  319  1  0.33848800  0.83774700  0.67211400  1
  H  320  1  0.31889800  0.81164600  0.69528400  1
  H  325  1  0.30678000  0.64561000  0.63036200  1
  H  326  1  0.12680500  0.65629600  0.79155400  1
  H  327  1  0.12411500  0.85562200  0.79171500  1
  H  328  1  0.30554300  0.87131400  0.63215400  1
  H  377  1  0.34793900  0.83508000  0.26087400  1
  H  378  1  0.31991300  0.81211300  0.24161900  1
  H  379  1  0.29500200  0.84232500  0.31089200  1
  H  380  1  0.26693900  0.81914300  0.29143400  1
  H  381  1  0.25981600  0.83954500  0.23973900  1
  H  382  1  0.22708100  0.83996900  0.21007800  1
  H  383  1  0.24269400  0.77688800  0.22465300  1
  H  384  1  0.24214900  0.73857900  0.22479800  1
  H  385  1  0.30994400  0.77759900  0.28317200  1
  H  386  1  0.30963000  0.73654800  0.28308300  1
  H  387  1  0.31309500  0.69520800  0.23792400  1
  H  388  1  0.34028000  0.67059700  0.25597000  1
  H  389  1  0.27070100  0.70162600  0.29499200  1
  H  390  1  0.29808500  0.67703500  0.31333800  1
  H  391  1  0.25835600  0.67550900  0.23897400  1
  H  392  1  0.22619900  0.67590900  0.20882600  1
  H  393  1  0.18044700  0.77887400  0.16213300  1
  H  394  1  0.18012700  0.73781600  0.16206300  1
  H  395  1  0.16525500  0.69938200  0.19803500  1
  H  396  1  0.14574500  0.67415400  0.17379300  1
  H  397  1  0.22946400  0.69950500  0.15888600  1
  H  398  1  0.21018700  0.67446100  0.13466300  1
  H  399  1  0.23184300  0.82249900  0.16366100  1
  H  400  1  0.21277300  0.84866400  0.14049300  1
  H  401  1  0.14395100  0.83831900  0.17179500  1
  H  402  1  0.16330800  0.81223500  0.19517200  1
  H  407  1  0.17649700  0.64998300  0.12611700  1
  H  408  1  0.35498900  0.65412800  0.28886400  1
  H  409  1  0.35988700  0.85170300  0.29488100  1
  H  410  1  0.17733300  0.87212000  0.13245300  1
  H  459  1  0.84813900  0.18010300  0.19080700  1
  H  460  1  0.82014700  0.20296900  0.21011700  1
  H  461  1  0.79502700  0.17276800  0.14084200  1
  H  462  1  0.76699700  0.19586000  0.16036000  1
  H  463  1  0.75988400  0.17548700  0.21201800  1
  H  464  1  0.72720000  0.17505700  0.24166200  1
  H  465  1  0.74300500  0.23813700  0.22723900  1
  H  466  1  0.74229600  0.27646700  0.22700900  1
  H  467  1  0.81004800  0.23749500  0.16869100  1
  H  468  1  0.80974200  0.27854000  0.16881400  1
  H  469  1  0.81328500  0.31994300  0.21392700  1
  H  470  1  0.84042600  0.34455300  0.19584400  1
  H  471  1  0.77076600  0.31337500  0.15686100  1
  H  472  1  0.79810300  0.33796700  0.13847800  1
  H  473  1  0.75857000  0.33953700  0.21288500  1
  H  474  1  0.72642400  0.33913000  0.24298400  1
  H  475  1  0.68068300  0.23611400  0.28959200  1
  H  476  1  0.68032800  0.27717200  0.28965800  1
  H  477  1  0.66542900  0.31564600  0.25371100  1
  H  478  1  0.64590900  0.34081300  0.27795600  1
  H  479  1  0.72963300  0.31554700  0.29297900  1
  H  480  1  0.71034900  0.34052800  0.31720000  1
  H  481  1  0.73204200  0.19244300  0.28812000  1
  H  482  1  0.71290900  0.16630300  0.31126200  1
  H  483  1  0.64408200  0.17677800  0.27990200  1
  H  484  1  0.66350300  0.20283300  0.25654900  1
  H  489  1  0.67665800  0.36492500  0.32576800  1
  H  490  1  0.85503400  0.36103500  0.16295100  1
  H  491  1  0.86002800  0.16362100  0.15673800  1
  H  492  1  0.67739000  0.14289700  0.31925800  1
  H  541  1  0.38506900  0.54204200  0.39788400  1
  H  542  1  0.41312000  0.52279500  0.42083100  1
  H  543  1  0.43770000  0.59245600  0.39118100  1
  H  544  1  0.46579100  0.57300300  0.41433600  1
  H  545  1  0.47317200  0.52100300  0.39384900  1
  H  546  1  0.50585400  0.49134600  0.39367800  1
  H  547  1  0.48994500  0.50610800  0.45663500  1
  H  548  1  0.49021500  0.50638600  0.49496100  1
  H  549  1  0.42295500  0.56477200  0.45537800  1
  H  550  1  0.42312700  0.56490800  0.49643000  1
  H  551  1  0.41850600  0.52064400  0.53759600  1
  H  552  1  0.39133400  0.53945800  0.56161600  1
  H  553  1  0.46288300  0.57666700  0.53165700  1
  H  554  1  0.43556600  0.59575200  0.55567000  1
  H  555  1  0.47403900  0.52109900  0.55789400  1
  H  556  1  0.50622200  0.49100900  0.55778000  1
  H  557  1  0.55220200  0.44368800  0.45522300  1
  H  558  1  0.55232100  0.44381600  0.49628700  1
  H  559  1  0.56786000  0.47985600  0.53291500  1
  H  560  1  0.58777400  0.45653500  0.55876700  1
  H  561  1  0.50288300  0.44172800  0.53636500  1
  H  562  1  0.52258200  0.41843200  0.56212100  1
  H  563  1  0.50095600  0.44507400  0.41115300  1
  H  564  1  0.52008400  0.42195500  0.38504300  1
  H  565  1  0.58896100  0.45312600  0.39576900  1
  H  566  1  0.56954000  0.47646300  0.42180100  1
  H  571  1  0.55674100  0.41253600  0.58790000  1
  H  572  1  0.37665600  0.57347700  0.57626500  1
  H  573  1  0.37293600  0.57615600  0.38155200  1
  H  574  1  0.55557200  0.41386200  0.36177000  1
  H  623  1  0.88486100  0.47267000  0.05340200  1
  H  624  1  0.91286200  0.49197000  0.03049400  1
  H  625  1  0.93777200  0.42258700  0.06057400  1
  H  626  1  0.96581700  0.44209300  0.03744800  1
  H  627  1  0.97302500  0.49400500  0.05776800  1
  H  628  1  0.00571800  0.52368500  0.05800300  1
  H  629  1  0.98990800  0.50886300  0.99501300  1
  H  630  1  0.99025200  0.50870400  0.95669800  1
  H  631  1  0.92291200  0.45016400  0.99606500  1
  H  632  1  0.92312000  0.45012800  0.95500700  1
  H  633  1  0.91842800  0.49449100  0.91408300  1
  H  634  1  0.89124400  0.47569500  0.88998300  1
  H  635  1  0.96295100  0.43855900  0.91983100  1
  H  636  1  0.93562200  0.41949200  0.89574100  1
  H  637  1  0.97401200  0.49407000  0.89373100  1
  H  638  1  0.00625400  0.52414200  0.89390900  1
  H  639  1  0.05215700  0.57137600  0.99663800  1
  H  640  1  0.05237400  0.57129800  0.95557300  1
  H  641  1  0.06793800  0.53526900  0.91885700  1
  H  642  1  0.08785800  0.55859600  0.89303700  1
  H  643  1  0.00303200  0.57342000  0.91537200  1
  H  644  1  0.02273400  0.59672500  0.88965000  1
  H  645  1  0.00081600  0.57002500  0.04031000  1
  H  646  1  0.01989200  0.59316800  0.06649100  1
  H  647  1  0.08870000  0.56180100  0.05628900  1
  H  648  1  0.06933700  0.53845000  0.03018500  1
  H  653  1  0.05685200  0.60264700  0.86391200  1
  H  654  1  0.87668300  0.44174400  0.87509900  1
  H  655  1  0.87287300  0.43854200  0.06979200  1
  H  656  1  0.05531000  0.60118000  0.08999400  1
  H  663  1  0.84581500  0.09428300  0.09176300  1
  H  664  1  0.88760500  0.15254000  0.12822200  1
  H  673  1  0.34554300  0.92094700  0.35980800  1
  H  674  1  0.38742000  0.86270000  0.32354900  1
  H  683  1  0.59623100  0.37097100  0.63477700  1
  H  684  1  0.64017100  0.41277500  0.58147500  1
  H  693  1  0.09632600  0.64414300  0.81695600  1
  H  694  1  0.14030900  0.60224400  0.87020800  1
  H  703  1  0.63864000  0.09660500  0.36249800  1
  H  704  1  0.59460900  0.15257000  0.32425800  1
  H  713  1  0.13867400  0.91844500  0.08918300  1
  H  714  1  0.09448800  0.86267300  0.12755100  1
  H  723  1  0.89023400  0.36328000  0.82088900  1
  H  724  1  0.84622900  0.41637800  0.86280900  1
  H  733  1  0.39023800  0.65185000  0.63073400  1
  H  734  1  0.34620100  0.59875600  0.58870200  1
  H  743  1  0.13887500  0.91102300  0.86965900  1
  H  744  1  0.09446900  0.87089400  0.81534700  1
  H  753  1  0.63855300  0.10413800  0.58206300  1
  H  754  1  0.59428200  0.14411600  0.63645600  1
  H  763  1  0.38702900  0.64164500  0.31273700  1
  H  764  1  0.34530300  0.60486000  0.37079100  1
  H  773  1  0.88706800  0.37355800  0.13913200  1
  H  774  1  0.84531800  0.40990900  0.08076300  1
  H  783  1  0.34422600  0.91763100  0.58950800  1
  H  784  1  0.38875400  0.86324400  0.62942000  1
  H  793  1  0.84452100  0.09742900  0.86204200  1
  H  794  1  0.88895800  0.15192900  0.82223300  1
  H  803  1  0.09393900  0.64424700  0.13650800  1
  H  804  1  0.13820300  0.60581400  0.08091400  1
  H  813  1  0.59411400  0.37083800  0.31522200  1
  H  814  1  0.63846000  0.40911300  0.37098400  1
  C  1  1  0.98011700  0.01449400  0.90725500  1
  C  2  1  0.99793100  0.99829900  0.90699000  1
  C  3  1  0.00382200  0.99283200  0.92839400  1
  C  5  1  0.97473300  0.01954200  0.92883000  1
  C  6  1  0.95700000  0.03534900  0.93564700  1
  C  7  1  0.95188200  0.04042900  0.95773700  1
  C  9  1  0.95246400  0.04052300  0.99427200  1
  C  10  1  0.93436900  0.05524900  0.98735000  1
  C  11  1  0.93408300  0.05525800  0.96496500  1
  C  12  1  0.95822900  0.03542400  0.01625900  1
  C  13  1  0.97596300  0.01935100  0.02254200  1
  C  15  1  0.00478800  0.99243600  0.02211300  1
  C  16  1  0.99925500  0.99739800  0.04368600  1
  C  17  1  0.98172800  0.01382200  0.04394700  1
  C  18  1  0.02178400  0.97601200  0.01529800  1
  C  19  1  0.02708500  0.97106700  0.99321400  1
  C  21  1  0.02682300  0.97123300  0.95666900  1
  C  22  1  0.04249800  0.95453900  0.96361900  1
  C  23  1  0.04272900  0.95448800  0.98600800  1
  C  24  1  0.02116200  0.97641700  0.93467600  1
  C  25  1  0.03278900  0.96351100  0.91805900  1
  C  26  1  0.05842600  0.96551000  0.91319400  1
  C  27  1  0.07001200  0.95168800  0.89796600  1
  C  28  1  0.05639800  0.93536300  0.88693100  1
  C  29  1  0.03067800  0.93360300  0.89176200  1
  C  30  1  0.01914700  0.94724600  0.90710400  1
  C  31  1  0.03315400  0.96252200  0.03152700  1
  C  32  1  0.05754000  0.96647200  0.03923000  1
  C  33  1  0.06909700  0.95210400  0.05400800  1
  C  34  1  0.05675200  0.93320900  0.06153500  1
  C  35  1  0.03229600  0.92945500  0.05370400  1
  C  36  1  0.02074500  0.94374200  0.03896000  1
  C  37  1  0.94380200  0.04601700  0.03282500  1
  C  38  1  0.92340400  0.03516600  0.04236900  1
  C  39  1  0.90733900  0.04599000  0.05681500  1
  C  40  1  0.91079900  0.06814000  0.06230100  1
  C  41  1  0.93151200  0.07886400  0.05291800  1
  C  42  1  0.94767600  0.06802600  0.03844300  1
  C  43  1  0.94200000  0.04592800  0.91949500  1
  C  44  1  0.91877500  0.03698000  0.91357000  1
  C  45  1  0.94842500  0.06648000  0.91095200  1
  C  46  1  0.93203000  0.07777000  0.89699400  1
  C  47  1  0.90851900  0.06902800  0.89122200  1
  C  48  1  0.90243600  0.04829900  0.89972000  1
  C  75  1  0.06738900  0.91850700  0.07624600  1
  C  76  1  0.89334100  0.07852200  0.07569500  1
  C  77  1  0.89104300  0.08008300  0.87837600  1
  C  78  1  0.06707600  0.92147500  0.87150700  1
  C  83  1  0.47985500  0.00064400  0.54438100  1
  C  84  1  0.49768400  0.01683700  0.54467200  1
  C  85  1  0.50352500  0.02234300  0.52327900  1
  C  87  1  0.47443200  0.99561700  0.52280000  1
  C  88  1  0.45665500  0.97982900  0.51595200  1
  C  89  1  0.45153700  0.97479400  0.49384200  1
  C  91  1  0.45214200  0.97479000  0.45731400  1
  C  92  1  0.43402200  0.96004700  0.46416200  1
  C  93  1  0.43371000  0.95999400  0.48654400  1
  C  94  1  0.45792500  0.97993700  0.43535300  1
  C  95  1  0.47570800  0.99597700  0.42909000  1
  C  97  1  0.50460800  0.02285300  0.42956200  1
  C  98  1  0.49904200  0.01791000  0.40798300  1
  C  99  1  0.48147900  0.00149800  0.40769500  1
  C  100  1  0.52165500  0.03925000  0.43640700  1
  C  101  1  0.52687500  0.04421900  0.45851000  1
  C  103  1  0.52650700  0.04402900  0.49504800  1
  C  104  1  0.54223200  0.06072100  0.48816900  1
  C  105  1  0.54253400  0.06078400  0.46578200  1
  C  106  1  0.52082900  0.03879100  0.51701200  1
  C  107  1  0.53244500  0.05168100  0.53365500  1
  C  108  1  0.55804300  0.04957400  0.53865300  1
  C  109  1  0.56964000  0.06337400  0.55391900  1
  C  110  1  0.55606400  0.07976200  0.56484500  1
  C  111  1  0.53037800  0.08161900  0.55988800  1
  C  112  1  0.51883300  0.06799100  0.54451300  1
  C  113  1  0.53305900  0.05275200  0.42020900  1
  C  114  1  0.55740300  0.04874300  0.41249100  1
  C  115  1  0.56899500  0.06310100  0.39773200  1
  C  116  1  0.55673500  0.08204900  0.39023900  1
  C  117  1  0.53232400  0.08586300  0.39808600  1
  C  118  1  0.52074000  0.07158900  0.41281400  1
  C  119  1  0.44349100  0.96937100  0.41876100  1
  C  120  1  0.42305400  0.98020500  0.40925400  1
  C  121  1  0.40698300  0.96938000  0.39477700  1
  C  122  1  0.41049300  0.94725600  0.38924200  1
  C  123  1  0.43126900  0.93656100  0.39857300  1
  C  124  1  0.44743900  0.94739800  0.41307800  1
  C  125  1  0.44165100  0.96922500  0.53207000  1
  C  126  1  0.41838100  0.97809700  0.53789700  1
  C  127  1  0.44810500  0.94870300  0.54066600  1
  C  128  1  0.43172500  0.93738800  0.55460000  1
  C  129  1  0.40818100  0.94606300  0.56028600  1
  C  130  1  0.40204900  0.96675000  0.55171400  1
  C  157  1  0.56740800  0.09674700  0.37554200  1
  C  158  1  0.39306600  0.93686800  0.37579800  1
  C  159  1  0.39071300  0.93497900  0.57310400  1
  C  160  1  0.56676200  0.09361600  0.58029500  1
  C  165  1  0.73018000  0.18960300  0.71903400  1
  C  166  1  0.74804300  0.18942400  0.73520800  1
  C  167  1  0.75387500  0.21085300  0.74059700  1
  C  169  1  0.72474100  0.21114800  0.71388800  1
  C  170  1  0.70696200  0.21788600  0.69805700  1
  C  171  1  0.70179000  0.23994900  0.69289400  1
  C  173  1  0.70231500  0.27646200  0.69270200  1
  C  174  1  0.68428800  0.26950400  0.67790800  1
  C  175  1  0.68401500  0.24712300  0.67798200  1
  C  176  1  0.70804100  0.29845300  0.69775500  1
  C  177  1  0.72571500  0.30484600  0.71383500  1
  C  179  1  0.75457600  0.30457300  0.74075600  1
  C  180  1  0.74902900  0.32611700  0.73563600  1
  C  181  1  0.73145300  0.32628100  0.71922200  1
  C  182  1  0.77168000  0.29784300  0.75716600  1
  C  183  1  0.77698400  0.27577800  0.76222700  1
  C  185  1  0.77677500  0.23923600  0.76216700  1
  C  186  1  0.79247400  0.24622900  0.77884000  1
  C  187  1  0.79267000  0.26861900  0.77882900  1
  C  188  1  0.77119400  0.21723100  0.75700200  1
  C  189  1  0.78285500  0.20066000  0.76995700  1
  C  190  1  0.80845200  0.19570400  0.76785100  1
  C  191  1  0.82004800  0.18040600  0.78162100  1
  C  192  1  0.80647300  0.16940300  0.79797700  1
  C  193  1  0.78079900  0.17434800  0.79985400  1
  C  194  1  0.76925400  0.18975100  0.78625800  1
  C  195  1  0.78336100  0.31415700  0.77035100  1
  C  196  1  0.80811200  0.32097600  0.76655000  1
  C  197  1  0.81988600  0.33605200  0.78044800  1
  C  198  1  0.80736800  0.34479900  0.79868300  1
  C  199  1  0.78254800  0.33789200  0.80231300  1
  C  200  1  0.77080000  0.32279700  0.78851300  1
  C  201  1  0.69370200  0.31493400  0.68695300  1
  C  202  1  0.67271200  0.32402300  0.69728700  1
  C  203  1  0.65662600  0.33817200  0.68605800  1
  C  204  1  0.66070700  0.34376800  0.66402100  1
  C  205  1  0.68202400  0.33487100  0.65383500  1
  C  206  1  0.69817900  0.32067900  0.66507100  1
  C  207  1  0.69192900  0.20169800  0.68758100  1
  C  208  1  0.66869000  0.19589600  0.69654400  1
  C  209  1  0.69832400  0.19302100  0.66709600  1
  C  210  1  0.68187200  0.17906000  0.65587500  1
  C  211  1  0.65836000  0.17338800  0.66464000  1
  C  212  1  0.65230200  0.18203200  0.68529700  1
  C  239  1  0.81815500  0.36013400  0.81258600  1
  C  240  1  0.64318900  0.35664000  0.65309100  1
  C  241  1  0.64084100  0.16052700  0.65365400  1
  C  242  1  0.81715100  0.15389100  0.81178000  1
  C  247  1  0.23018400  0.82542700  0.73263800  1
  C  248  1  0.24800300  0.82561800  0.71646200  1
  C  249  1  0.25383400  0.80419300  0.71108500  1
  C  251  1  0.22475300  0.80388100  0.73779600  1
  C  252  1  0.20700600  0.79714200  0.75363200  1
  C  253  1  0.20186400  0.77506100  0.75876900  1
  C  255  1  0.20239400  0.73853700  0.75892200  1
  C  256  1  0.18444300  0.74546800  0.77375400  1
  C  257  1  0.18414500  0.76785100  0.77368600  1
  C  258  1  0.20809400  0.71654800  0.75385300  1
  C  259  1  0.22574700  0.71017300  0.73778200  1
  C  261  1  0.25458500  0.71046100  0.71088200  1
  C  262  1  0.24902500  0.68891600  0.71599800  1
  C  263  1  0.23146900  0.68874200  0.73239500  1
  C  264  1  0.27168300  0.71719300  0.69449100  1
  C  265  1  0.27697400  0.73927600  0.68946300  1
  C  267  1  0.27671700  0.77582900  0.68952900  1
  C  268  1  0.29236600  0.76886100  0.67284800  1
  C  269  1  0.29261200  0.74647000  0.67286800  1
  C  270  1  0.27113600  0.79782900  0.69469500  1
  C  271  1  0.28276500  0.81441400  0.68173200  1
  C  272  1  0.30837400  0.81938800  0.68381700  1
  C  273  1  0.31993800  0.83468000  0.67002700  1
  C  274  1  0.30632200  0.84566700  0.65366700  1
  C  275  1  0.28063300  0.84071100  0.65181500  1
  C  276  1  0.26912200  0.82531200  0.66543000  1
  C  277  1  0.28336600  0.70088500  0.68130600  1
  C  278  1  0.30817900  0.69418000  0.68503300  1
  C  279  1  0.31995400  0.67914500  0.67111500  1
  C  280  1  0.30738400  0.67030600  0.65292000  1
  C  281  1  0.28251000  0.67711000  0.64935200  1
  C  282  1  0.27076400  0.69216800  0.66316800  1
  C  283  1  0.19380000  0.70005000  0.76467600  1
  C  284  1  0.17276500  0.69094900  0.75435700  1
  C  285  1  0.15667600  0.67683200  0.76561300  1
  C  286  1  0.16080900  0.67125200  0.78765400  1
  C  287  1  0.18217700  0.68015400  0.79782100  1
  C  288  1  0.19834600  0.69430600  0.78655700  1
  C  289  1  0.19201200  0.81332000  0.76414700  1
  C  290  1  0.16869700  0.81906100  0.75525700  1
  C  291  1  0.19850500  0.82204700  0.78460600  1
  C  292  1  0.18210200  0.83600000  0.79585500  1
  C  293  1  0.15850400  0.84158400  0.78717400  1
  C  294  1  0.15234100  0.83288200  0.76654600  1
  C  321  1  0.31816700  0.65500500  0.63898100  1
  C  322  1  0.14328200  0.65841800  0.79860800  1
  C  323  1  0.14100100  0.85439700  0.79820400  1
  C  324  1  0.31696500  0.86117500  0.63984000  1
  C  329  1  0.25214400  0.82597200  0.23297500  1
  C  330  1  0.23428700  0.82618500  0.21679400  1
  C  331  1  0.22840000  0.80476700  0.21140500  1
  C  333  1  0.25754300  0.80441700  0.23810900  1
  C  334  1  0.27535400  0.79764300  0.25390200  1
  C  335  1  0.28051200  0.77555700  0.25900700  1
  C  337  1  0.28004500  0.73902300  0.25909100  1
  C  338  1  0.29806400  0.74596000  0.27389800  1
  C  339  1  0.29826500  0.76834300  0.27392500  1
  C  340  1  0.27436900  0.71703400  0.25396100  1
  C  341  1  0.25665200  0.71069700  0.23788200  1
  C  343  1  0.22778900  0.71104900  0.21096300  1
  C  344  1  0.23341500  0.68949100  0.21594200  1
  C  345  1  0.25097100  0.68927800  0.23237000  1
  C  346  1  0.21074400  0.71782400  0.19453200  1
  C  347  1  0.20534900  0.73989800  0.18959500  1
  C  349  1  0.20548300  0.77643500  0.18978400  1
  C  350  1  0.18985600  0.76947600  0.17304400  1
  C  351  1  0.18970200  0.74708800  0.17297700  1
  C  352  1  0.21109000  0.79842700  0.19497400  1
  C  353  1  0.19956700  0.81501200  0.18194200  1
  C  354  1  0.17393900  0.81996700  0.18378800  1
  C  355  1  0.16251300  0.83523700  0.16987800  1
  C  356  1  0.17630200  0.84621500  0.15364000  1
  C  357  1  0.20199300  0.84126200  0.15200700  1
  C  358  1  0.21335700  0.82587100  0.16572800  1
  C  359  1  0.19942000  0.70158100  0.18103700  1
  C  360  1  0.17496800  0.69398600  0.18483900  1
  C  361  1  0.16344500  0.67923000  0.17043500  1
  C  362  1  0.17588700  0.67161500  0.15164800  1
  C  363  1  0.20041000  0.67932800  0.14804400  1
  C  364  1  0.21192900  0.69405300  0.16236900  1
  C  365  1  0.28889100  0.70050200  0.26452600  1
  C  366  1  0.30933800  0.69108800  0.25366800  1
  C  367  1  0.32545900  0.67663400  0.26445700  1
  C  368  1  0.32199700  0.67102700  0.28657500  1
  C  369  1  0.30123800  0.68028900  0.29730700  1
  C  370  1  0.28501400  0.69476400  0.28650000  1
  C  371  1  0.29044400  0.81380100  0.26438200  1
  C  372  1  0.31414300  0.81889600  0.25590000  1
  C  373  1  0.28369300  0.82297300  0.28456600  1
  C  374  1  0.30029500  0.83660900  0.29602700  1
  C  375  1  0.32433300  0.84136900  0.28783500  1
  C  376  1  0.33070700  0.83238000  0.26741000  1
  C  403  1  0.16526800  0.65694500  0.13689900  1
  C  404  1  0.33948000  0.65761900  0.29692700  1
  C  405  1  0.34222200  0.85323400  0.29942800  1
  C  406  1  0.16584900  0.86174800  0.13973800  1
  C  411  1  0.75223200  0.18905800  0.21877400  1
  C  412  1  0.73438400  0.18884300  0.23493100  1
  C  413  1  0.72857700  0.21025800  0.24036500  1
  C  415  1  0.75768100  0.21061200  0.21366800  1
  C  416  1  0.77550500  0.21738600  0.19790900  1
  C  417  1  0.78066100  0.23948800  0.19283800  1
  C  419  1  0.78019600  0.27603100  0.19278400  1
  C  420  1  0.79819300  0.26911300  0.17799000  1
  C  421  1  0.79840700  0.24673000  0.17795900  1
  C  422  1  0.77453500  0.29802000  0.19791100  1
  C  423  1  0.75683800  0.30435100  0.21397200  1
  C  425  1  0.72798900  0.30399400  0.24086000  1
  C  426  1  0.73363500  0.32554900  0.23588600  1
  C  427  1  0.75116600  0.32576800  0.21947000  1
  C  428  1  0.71092800  0.29722100  0.25725900  1
  C  429  1  0.70560900  0.27513200  0.26222100  1
  C  431  1  0.70577500  0.23858400  0.26202900  1
  C  432  1  0.69017300  0.24552500  0.27875800  1
  C  433  1  0.68999600  0.26791300  0.27882200  1
  C  434  1  0.71132400  0.21659100  0.25681000  1
  C  435  1  0.69977200  0.19999700  0.26981100  1
  C  436  1  0.67412400  0.19507600  0.26793600  1
  C  437  1  0.66265900  0.17982500  0.28183800  1
  C  438  1  0.67642500  0.16882500  0.29809500  1
  C  439  1  0.70213800  0.17373100  0.29974300  1
  C  440  1  0.71354500  0.18909500  0.28602800  1
  C  441  1  0.69960400  0.31345900  0.27075400  1
  C  442  1  0.67514500  0.32103400  0.26693300  1
  C  443  1  0.66361300  0.33575900  0.28133800  1
  C  444  1  0.67604200  0.34336900  0.30016600  1
  C  445  1  0.70057400  0.33567700  0.30378900  1
  C  446  1  0.71209600  0.32097900  0.28946700  1
  C  447  1  0.78903100  0.31456200  0.18732900  1
  C  448  1  0.80950200  0.32402000  0.19817300  1
  C  449  1  0.82559600  0.33847400  0.18735900  1
  C  450  1  0.82208700  0.34403900  0.16523000  1
  C  451  1  0.80128500  0.33475700  0.15452000  1
  C  452  1  0.78509100  0.32027500  0.16534700  1
  C  453  1  0.79056700  0.20123200  0.18740900  1
  C  454  1  0.81432500  0.19618700  0.19583700  1
  C  455  1  0.78379000  0.19207500  0.16720400  1
  C  456  1  0.80037100  0.17848400  0.15570500  1
  C  457  1  0.82445300  0.17376500  0.16386100  1
  C  458  1  0.83087800  0.18276200  0.18428900  1
  C  485  1  0.66542100  0.35801600  0.31492900  1
  C  486  1  0.83953900  0.35746700  0.15486300  1
  C  487  1  0.84234900  0.16197100  0.15222900  1
  C  488  1  0.66593300  0.15330700  0.31198800  1
  C  493  1  0.48076800  0.51428100  0.40748100  1
  C  494  1  0.49861900  0.49812000  0.40740800  1
  C  495  1  0.50438300  0.49278200  0.42887100  1
  C  497  1  0.47527800  0.51948800  0.42899100  1
  C  498  1  0.45748100  0.53531600  0.43562500  1
  C  499  1  0.45223300  0.54052400  0.45766400  1
  C  501  1  0.45254900  0.54079200  0.49419600  1
  C  502  1  0.43464700  0.55561600  0.48710900  1
  C  503  1  0.43451200  0.55550700  0.46472600  1
  C  504  1  0.45811700  0.53578000  0.51623800  1
  C  505  1  0.47572800  0.51969700  0.52272300  1
  C  507  1  0.50456100  0.49278600  0.52261600  1
  C  508  1  0.49895100  0.49795500  0.54412800  1
  C  509  1  0.48139100  0.51435800  0.54419300  1
  C  510  1  0.52166800  0.47637200  0.51598500  1
  C  511  1  0.52707100  0.47127100  0.49395100  1
  C  513  1  0.52708000  0.47125600  0.45739800  1
  C  514  1  0.54264900  0.45456200  0.46452100  1
  C  515  1  0.54271600  0.45462100  0.48691200  1
  C  516  1  0.52164100  0.47637000  0.43534500  1
  C  517  1  0.53324700  0.46328800  0.41885400  1
  C  518  1  0.55891400  0.46510100  0.41401500  1
  C  519  1  0.57037700  0.45121400  0.39876800  1
  C  520  1  0.55659900  0.43502800  0.38768000  1
  C  521  1  0.53087700  0.43341700  0.39253200  1
  C  522  1  0.51947100  0.44711600  0.40789000  1
  C  523  1  0.53331400  0.46325500  0.53238000  1
  C  524  1  0.55810800  0.46702900  0.53912600  1
  C  525  1  0.56987600  0.45315900  0.55423500  1
  C  526  1  0.55730800  0.43497900  0.56308800  1
  C  527  1  0.53244300  0.43137900  0.55626000  1
  C  528  1  0.52070100  0.44515100  0.54113100  1
  C  529  1  0.44372000  0.54662400  0.53264500  1
  C  530  1  0.42270600  0.53629700  0.54174000  1
  C  531  1  0.40661100  0.54753000  0.55584900  1
  C  532  1  0.41069400  0.56957400  0.56142000  1
  C  533  1  0.43203000  0.57976100  0.55251800  1
  C  534  1  0.44819200  0.56852100  0.53835900  1
  C  535  1  0.44246600  0.54574000  0.41937300  1
  C  536  1  0.41883900  0.53715000  0.41414300  1
  C  537  1  0.44911900  0.56603900  0.41036500  1
  C  538  1  0.43248000  0.57751600  0.39677800  1
  C  539  1  0.40852100  0.56920000  0.39186000  1
  C  540  1  0.40224500  0.54866800  0.40069300  1
  C  567  1  0.56810300  0.42109500  0.57844100  1
  C  568  1  0.39315700  0.58050300  0.57425200  1
  C  569  1  0.39058200  0.58079900  0.38006600  1
  C  570  1  0.56707100  0.42116300  0.37213100  1
  C  575  1  0.98063600  0.50072300  0.04415200  1
  C  576  1  0.99848100  0.51690500  0.04426000  1
  C  577  1  0.00426900  0.52222800  0.02280700  1
  C  579  1  0.97516700  0.49550000  0.02263100  1
  C  580  1  0.95736000  0.47966300  0.01596400  1
  C  581  1  0.95214200  0.47448700  0.99390300  1
  C  583  1  0.95250400  0.47430400  0.95737700  1
  C  584  1  0.93462400  0.45941400  0.96438100  1
  C  585  1  0.93444500  0.45948900  0.98676400  1
  C  586  1  0.95809500  0.47937200  0.93536300  1
  C  587  1  0.97573800  0.49544200  0.92890700  1
  C  589  1  0.00461900  0.52233200  0.92907000  1
  C  590  1  0.99898200  0.51718800  0.90754700  1
  C  591  1  0.98139200  0.50079500  0.90744800  1
  C  592  1  0.02176100  0.53873400  0.93573500  1
  C  593  1  0.02714500  0.54380200  0.95778900  1
  C  595  1  0.02704100  0.54378400  0.99433600  1
  C  596  1  0.04263900  0.56049500  0.98729000  1
  C  597  1  0.04279700  0.56044000  0.96490000  1
  C  598  1  0.02153800  0.53863800  0.01636000  1
  C  599  1  0.03309200  0.55173200  0.03287800  1
  C  600  1  0.05871400  0.54985400  0.03787900  1
  C  601  1  0.07014200  0.56374800  0.05316400  1
  C  602  1  0.05635700  0.57999000  0.06411200  1
  C  603  1  0.03067400  0.58166000  0.05910100  1
  C  604  1  0.01930400  0.56795300  0.04370400  1
  C  605  1  0.03342000  0.55187300  0.91937400  1
  C  606  1  0.05819900  0.54810200  0.91264500  1
  C  607  1  0.06997300  0.56197800  0.89755500  1
  C  608  1  0.05742900  0.58016700  0.88869300  1
  C  609  1  0.03258400  0.58377300  0.89551300  1
  C  610  1  0.02083900  0.56999800  0.91062700  1
  C  611  1  0.94371100  0.46855000  0.91892000  1
  C  612  1  0.92266800  0.47887500  0.90985800  1
  C  613  1  0.90655600  0.46764700  0.89572300  1
  C  614  1  0.91068400  0.44563300  0.89008900  1
  C  615  1  0.93205300  0.43546000  0.89896000  1
  C  616  1  0.94824600  0.44669600  0.91312900  1
  C  617  1  0.94234500  0.46920100  0.03217700  1
  C  618  1  0.91865900  0.47768600  0.03728400  1
  C  619  1  0.94908700  0.44897700  0.04130600  1
  C  620  1  0.93249200  0.43748400  0.05490600  1
  C  621  1  0.90846200  0.44567900  0.05966800  1
  C  622  1  0.90208800  0.46613000  0.05070400  1
  C  649  1  0.06822200  0.59405600  0.87334800  1
  C  650  1  0.89315800  0.43470900  0.87721300  1
  C  651  1  0.89054500  0.43403300  0.07143400  1
  C  652  1  0.06680500  0.59385700  0.07967600  1
  C  657  1  0.85514400  0.10637400  0.09962100  1
  C  659  1  0.85261500  0.13671600  0.12400100  1
  C  660  1  0.87843100  0.14003600  0.12088700  1
  C  662  1  0.88103000  0.10950000  0.09675300  1
  C  667  1  0.35488700  0.90887100  0.35197500  1
  C  669  1  0.35242000  0.87848700  0.32765800  1
  C  670  1  0.37823600  0.87520900  0.33083200  1
  C  672  1  0.38077700  0.90579900  0.35488300  1
  C  677  1  0.60599600  0.37989700  0.62374400  1
  C  679  1  0.60444600  0.40542800  0.59430200  1
  C  680  1  0.63058900  0.40406400  0.59283200  1
  C  682  1  0.63223900  0.37859400  0.62233900  1
  C  687  1  0.10609800  0.63520300  0.82798600  1
  C  689  1  0.10455900  0.60965700  0.85741900  1
  C  690  1  0.13071300  0.61097700  0.85886500  1
  C  692  1  0.13235200  0.63645700  0.82936000  1
  C  697  1  0.62899100  0.10839800  0.35443800  1
  C  699  1  0.63016900  0.13841900  0.32953800  1
  C  700  1  0.60424500  0.14070800  0.33223100  1
  C  702  1  0.60307100  0.11071400  0.35716600  1
  C  707  1  0.12899300  0.90669600  0.09727400  1
  C  709  1  0.13010100  0.87671000  0.12221200  1
  C  710  1  0.10415600  0.87449500  0.11955400  1
  C  712  1  0.10305100  0.90445500  0.09458200  1
  C  717  1  0.88063600  0.37459500  0.82962300  1
  C  719  1  0.88225800  0.40403400  0.85514900  1
  C  720  1  0.85600700  0.40538800  0.85385900  1
  C  722  1  0.85448800  0.37602200  0.82826700  1
  C  727  1  0.38062600  0.64054100  0.62197300  1
  C  729  1  0.38223900  0.61113300  0.59639500  1
  C  730  1  0.35598600  0.60975400  0.59766600  1
  C  732  1  0.35447600  0.63909700  0.62330300  1
  C  737  1  0.12919400  0.90265000  0.85810200  1
  C  739  1  0.13054200  0.87745200  0.82834500  1
  C  740  1  0.10436400  0.87940500  0.82662400  1
  C  742  1  0.10312700  0.90464700  0.85631300  1
  C  747  1  0.62890900  0.11247400  0.59364400  1
  C  749  1  0.63031600  0.13760800  0.62344000  1
  C  750  1  0.60414700  0.13562800  0.62517000  1
  C  752  1  0.60285200  0.11044200  0.59545100  1
  C  757  1  0.37771500  0.63370800  0.32477500  1
  C  759  1  0.38027300  0.60919500  0.35501600  1
  C  760  1  0.35445500  0.61226800  0.35832700  1
  C  762  1  0.35182500  0.63652500  0.32787800  1
  C  767  1  0.87774900  0.38139400  0.12701800  1
  C  769  1  0.88028600  0.40576200  0.09665300  1
  C  770  1  0.85448100  0.40258800  0.09328600  1
  C  772  1  0.85186900  0.37848100  0.12385800  1
  C  777  1  0.35414300  0.90633800  0.59797200  1
  C  779  1  0.35298400  0.87654000  0.62310700  1
  C  780  1  0.37905000  0.87482100  0.62109900  1
  C  782  1  0.38031900  0.90469200  0.59601100  1
  C  787  1  0.85441900  0.10873700  0.85358800  1
  C  789  1  0.85320900  0.13856500  0.82849600  1
  C  790  1  0.87927700  0.14032300  0.83052600  1
  C  792  1  0.88059800  0.11041600  0.85556300  1
  C  797  1  0.10363700  0.63614300  0.12479700  1
  C  799  1  0.10255600  0.61125000  0.09479800  1
  C  800  1  0.12851800  0.61383100  0.09269300  1
  C  802  1  0.12959500  0.63875700  0.12266900  1
  C  807  1  0.60383400  0.37890700  0.32697100  1
  C  809  1  0.60279600  0.40375500  0.35702300  1
  C  810  1  0.62875300  0.40113100  0.35916900  1
  C  812  1  0.62978900  0.37625400  0.32913800  1
  N  4  1  0.98957100  0.00622100  0.94076000  1
  N  8  1  0.96243100  0.03213900  0.97591000  1
  N  14  1  0.99053200  0.00622100  0.01017800  1
  N  20  1  0.01808900  0.98062000  0.97502400  1
  N  86  1  0.48927000  0.00894800  0.51088400  1
  N  90  1  0.46210700  0.98313100  0.47571600  1
  N  96  1  0.49031700  0.00908500  0.44148200  1
  N  102  1  0.51780800  0.03465500  0.47665600  1
  N  168  1  0.73958600  0.22315600  0.72714400  1
  N  172  1  0.71227700  0.25813700  0.70118900  1
  N  178  1  0.74025900  0.29255300  0.72708700  1
  N  184  1  0.76798500  0.25756300  0.75273400  1
  N  250  1  0.23956700  0.79188500  0.72453500  1
  N  254  1  0.21232100  0.75688700  0.75044900  1
  N  260  1  0.24027900  0.72247000  0.72453800  1
  N  266  1  0.26797600  0.75747800  0.69895700  1
  N  332  1  0.24266100  0.79243800  0.22485800  1
  N  336  1  0.27004400  0.75737400  0.25067400  1
  N  342  1  0.24201500  0.72302700  0.22474200  1
  N  348  1  0.21426900  0.75809000  0.19918400  1
  N  414  1  0.74283800  0.22258700  0.22692300  1
  N  418  1  0.77021000  0.25766000  0.20117600  1
  N  424  1  0.74220900  0.29202100  0.22710500  1
  N  430  1  0.71453000  0.25694700  0.25263900  1
  N  496  1  0.49008600  0.50627900  0.44108300  1
  N  500  1  0.46256900  0.53224500  0.47593500  1
  N  506  1  0.49029100  0.50641700  0.51051500  1
  N  512  1  0.51822900  0.48074400  0.47566000  1
  N  578  1  0.98998300  0.50871900  0.01056600  1
  N  582  1  0.96249700  0.48282500  0.97568200  1
  N  588  1  0.99033100  0.50870100  0.94114500  1
  N  594  1  0.01823200  0.53430800  0.97603300  1
  N  658  1  0.84220800  0.11994200  0.11288500  1
  N  661  1  0.89134500  0.12652800  0.10754200  1
  N  665  1  0.89596300  0.09761600  0.08398800  1
  N  666  1  0.83759300  0.14887000  0.13642800  1
  N  668  1  0.34197100  0.89524800  0.33871900  1
  N  671  1  0.39112900  0.88876900  0.34416900  1
  N  675  1  0.39567600  0.91771900  0.36765700  1
  N  676  1  0.33742800  0.86627300  0.31525100  1
  N  678  1  0.59333500  0.39305000  0.60986200  1
  N  681  1  0.64324800  0.39082000  0.60666000  1
  N  685  1  0.64695000  0.36607900  0.63469000  1
  N  686  1  0.59175200  0.41826400  0.58069000  1
  N  688  1  0.09343900  0.62206300  0.84187300  1
  N  691  1  0.14336900  0.62420300  0.84502700  1
  N  695  1  0.14706900  0.64895000  0.81699700  1
  N  696  1  0.09187000  0.59683500  0.87104500  1
  N  698  1  0.64137900  0.12215800  0.34094800  1
  N  701  1  0.59188000  0.12699000  0.34577000  1
  N  705  1  0.59071900  0.09741200  0.37058500  1
  N  706  1  0.64252500  0.15200500  0.31643000  1
  N  708  1  0.14135800  0.89291500  0.11076800  1
  N  711  1  0.09181100  0.88823100  0.10601000  1
  N  715  1  0.09072100  0.91776900  0.08115700  1
  N  716  1  0.14243100  0.86310300  0.13532000  1
  N  718  1  0.89328400  0.38840900  0.84289200  1
  N  721  1  0.84335800  0.39152300  0.84067900  1
  N  725  1  0.84180400  0.36242200  0.81540900  1
  N  726  1  0.89696200  0.41636600  0.86769300  1
  N  728  1  0.39326300  0.62675500  0.60869900  1
  N  731  1  0.34334600  0.62359300  0.61085400  1
  N  735  1  0.34181100  0.65268300  0.63617800  1
  N  736  1  0.39695400  0.59881200  0.58386400  1
  N  738  1  0.14165800  0.88928900  0.84427900  1
  N  741  1  0.09189800  0.89270200  0.84047300  1
  N  745  1  0.09060500  0.91762000  0.86990800  1
  N  746  1  0.14514900  0.86482700  0.81600500  1
  N  748  1  0.64140500  0.12583000  0.60748100  1
  N  751  1  0.59165100  0.12234000  0.61130600  1
  N  755  1  0.59029700  0.09749000  0.58185000  1
  N  756  1  0.64493200  0.15024400  0.63577300  1
  N  758  1  0.39067700  0.62040100  0.33831400  1
  N  761  1  0.34151500  0.62565300  0.34484600  1
  N  765  1  0.33687400  0.64930500  0.31601200  1
  N  766  1  0.39531100  0.59675500  0.36714900  1
  N  768  1  0.89069100  0.39467900  0.11345100  1
  N  771  1  0.84155900  0.38923200  0.10679700  1
  N  775  1  0.83693800  0.36570200  0.13573700  1
  N  776  1  0.89530700  0.41821300  0.08451400  1
  N  778  1  0.34171400  0.89240200  0.61122600  1
  N  781  1  0.39147700  0.88873100  0.60777800  1
  N  785  1  0.39488300  0.91710700  0.58340800  1
  N  786  1  0.34049600  0.86285600  0.63602600  1
  N  788  1  0.84196200  0.12267700  0.84034900  1
  N  791  1  0.89173300  0.12641100  0.84383600  1
  N  795  1  0.89517700  0.09801600  0.86817000  1
  N  796  1  0.84069000  0.15225200  0.81560200  1
  N  798  1  0.09127700  0.62270400  0.11096000  1
  N  801  1  0.14085600  0.62731800  0.10648900  1
  N  805  1  0.14191800  0.65212900  0.13603800  1
  N  806  1  0.09023300  0.59819000  0.08113800  1
  N  808  1  0.59150400  0.39233600  0.34080900  1
  N  811  1  0.64106400  0.38765600  0.34537100  1
  N  815  1  0.64208900  0.36289100  0.31575500  1
  N  816  1  0.59049200  0.41681100  0.37068900  1
