# generated using pymatgen
data_NiH44C54(N2O)2
_symmetry_space_group_name_H-M   'P 1'
_cell_length_a   7.48340000
_cell_length_b   42.82040000
_cell_length_c   45.82550000
_cell_angle_alpha   91.10890000
_cell_angle_beta   92.32390000
_cell_angle_gamma   93.95820000
_symmetry_Int_Tables_number   1
_chemical_formula_structural   NiH44C54(N2O)2
_chemical_formula_sum   'Ni8 H352 C432 N32 O16'
_cell_volume   14633.73307147
_cell_formula_units_Z   8
loop_
 _symmetry_equiv_pos_site_id
 _symmetry_equiv_pos_as_xyz
  1  'x, y, z'
loop_
 _atom_site_type_symbol
 _atom_site_label
 _atom_site_symmetry_multiplicity
 _atom_site_fract_x
 _atom_site_fract_y
 _atom_site_fract_z
 _atom_site_occupancy
  Ni  Ni1  1  0.06003000  0.00181000  0.50900000  1.0
  Ni  Ni2  1  0.93045000  0.24113000  0.74676000  1.0
  Ni  Ni3  1  0.48519000  0.99801000  0.99470000  1.0
  Ni  Ni4  1  0.33761000  0.74348000  0.24832000  1.0
  Ni  Ni5  1  0.92234000  0.26110000  0.25065000  1.0
  Ni  Ni6  1  0.63820000  0.48116000  0.00028000  1.0
  Ni  Ni7  1  0.13285000  0.74475000  0.76068000  1.0
  Ni  Ni8  1  0.14518000  0.48358000  0.49184000  1.0
  H  H1  1  0.95681000  0.10970000  0.46725000  1.0
  H  H2  1  0.95898000  0.11829000  0.52340000  1.0
  H  H3  1  0.95559000  0.04500000  0.61190000  1.0
  H  H4  1  0.96481000  0.98481000  0.61751000  1.0
  H  H5  1  0.22655000  0.89623000  0.55024000  1.0
  H  H6  1  0.24623000  0.88973000  0.49524000  1.0
  H  H7  1  0.10869000  0.95683000  0.40500000  1.0
  H  H8  1  0.05317000  0.01596000  0.39798000  1.0
  H  H9  1  0.77412000  0.27004000  0.84958000  1.0
  H  H10  1  0.80507000  0.20962000  0.85042000  1.0
  H  H11  1  0.99398000  0.12846000  0.77337000  1.0
  H  H12  1  0.14628000  0.13491000  0.72305000  1.0
  H  H13  1  0.15391000  0.21565000  0.64763000  1.0
  H  H14  1  0.93557000  0.26013000  0.63842000  1.0
  H  H15  1  0.78289000  0.34729000  0.71211000  1.0
  H  H16  1  0.82562000  0.35373000  0.76942000  1.0
  H  H17  1  0.17639000  0.88945000  0.00660000  1.0
  H  H18  1  0.05926000  0.90752000  0.95531000  1.0
  H  H19  1  0.14011000  0.01344000  0.89994000  1.0
  H  H20  1  0.42463000  0.05199000  0.89771000  1.0
  H  H21  1  0.02216000  0.06699000  0.96776000  1.0
  H  H22  1  0.03806000  0.06552000  0.02464000  1.0
  H  H23  1  0.71616000  0.00312000  0.10096000  1.0
  H  H24  1  0.54889000  0.94787000  0.09415000  1.0
  H  H25  1  0.28291000  0.71220000  0.14086000  1.0
  H  H26  1  0.06450000  0.75539000  0.14627000  1.0
  H  H27  1  0.07316000  0.84781000  0.22803000  1.0
  H  H28  1  0.22876000  0.85423000  0.27995000  1.0
  H  H29  1  0.30763000  0.77447000  0.35335000  1.0
  H  H30  1  0.31350000  0.71326000  0.35385000  1.0
  H  H31  1  0.57961000  0.63854000  0.27117000  1.0
  H  H32  1  0.65547000  0.64814000  0.21754000  1.0
  H  H33  1  0.86737000  0.31331000  0.15240000  1.0
  H  H34  1  0.79347000  0.25476000  0.14071000  1.0
  H  H35  1  0.66732000  0.15801000  0.20554000  1.0
  H  H36  1  0.59534000  0.15452000  0.26122000  1.0
  H  H37  1  0.81466000  0.22921000  0.35397000  1.0
  H  H38  1  0.09576000  0.26957000  0.35779000  1.0
  H  H39  1  0.24384000  0.35821000  0.29812000  1.0
  H  H40  1  0.14800000  0.37552000  0.24532000  1.0
  H  H41  1  0.68731000  0.58962000  0.95613000  1.0
  H  H42  1  0.69941000  0.59896000  0.01286000  1.0
  H  H43  1  0.35286000  0.53138000  0.08327000  1.0
  H  H44  1  0.28459000  0.47129000  0.08873000  1.0
  H  H45  1  0.66851000  0.37714000  0.05219000  1.0
  H  H46  1  0.79368000  0.36721000  0.00030000  1.0
  H  H47  1  0.74555000  0.42863000  0.90349000  1.0
  H  H48  1  0.63097000  0.48096000  0.89003000  1.0
  H  H49  1  0.06080000  0.77141000  0.65524000  1.0
  H  H50  1  0.16407000  0.71395000  0.65455000  1.0
  H  H51  1  0.21255000  0.62999000  0.74411000  1.0
  H  H52  1  0.33283000  0.64242000  0.79723000  1.0
  H  H53  1  0.52276000  0.74914000  0.85277000  1.0
  H  H54  1  0.37160000  0.80121000  0.85395000  1.0
  H  H55  1  0.75431000  0.83125000  0.79287000  1.0
  H  H56  1  0.69899000  0.82617000  0.73635000  1.0
  H  H57  1  0.18736000  0.38466000  0.55074000  1.0
  H  H58  1  0.39625000  0.37771000  0.50775000  1.0
  H  H59  1  0.36928000  0.42679000  0.40254000  1.0
  H  H60  1  0.26125000  0.47854000  0.38295000  1.0
  H  H61  1  0.08624000  0.58224000  0.43235000  1.0
  H  H62  1  0.03651000  0.59972000  0.48592000  1.0
  H  H63  1  0.84327000  0.53414000  0.57688000  1.0
  H  H64  1  0.79833000  0.47330000  0.58442000  1.0
  H  H65  1  0.17815000  0.91310000  0.59113000  1.0
  H  H66  1  0.20560000  0.94828000  0.60923000  1.0
  H  H67  1  0.63022000  0.89964000  0.55241000  1.0
  H  H68  1  0.75379000  0.93671000  0.55353000  1.0
  H  H69  1  0.86661000  0.90027000  0.55106000  1.0
  H  H70  1  0.51236000  0.88983000  0.59617000  1.0
  H  H71  1  0.37040000  0.87131000  0.63599000  1.0
  H  H72  1  0.43339000  0.89118000  0.66989000  1.0
  H  H73  1  0.52395000  0.85418000  0.66078000  1.0
  H  H74  1  0.68961000  0.88731000  0.69655000  1.0
  H  H75  1  0.83960000  0.91977000  0.70142000  1.0
  H  H76  1  0.78229000  0.83436000  0.68245000  1.0
  H  H77  1  0.29919000  0.81545000  0.71955000  1.0
  H  H78  1  0.42972000  0.89672000  0.73456000  1.0
  H  H79  1  0.15011000  0.90954000  0.71561000  1.0
  H  H80  1  0.06742000  0.94229000  0.68223000  1.0
  H  H81  1  0.21751000  0.92602000  0.65706000  1.0
  H  H82  1  0.12116000  0.96309000  0.65199000  1.0
  H  H83  1  0.45576000  0.21866000  0.70089000  1.0
  H  H84  1  0.43167000  0.19714000  0.73115000  1.0
  H  H85  1  0.64626000  0.15681000  0.74545000  1.0
  H  H86  1  0.41400000  0.15049000  0.75311000  1.0
  H  H87  1  0.54767000  0.11795000  0.74923000  1.0
  H  H88  1  0.50959000  0.09080000  0.70574000  1.0
  H  H89  1  0.48108000  0.05859000  0.66498000  1.0
  H  H90  1  0.58287000  0.07568000  0.63381000  1.0
  H  H91  1  0.34084000  0.07227000  0.63614000  1.0
  H  H92  1  0.54287000  0.11718000  0.60541000  1.0
  H  H93  1  0.48782000  0.15594000  0.60239000  1.0
  H  H94  1  0.33146000  0.08485000  0.57767000  1.0
  H  H95  1  0.77281000  0.10360000  0.57300000  1.0
  H  H96  1  0.86052000  0.17518000  0.61707000  1.0
  H  H97  1  0.14734000  0.16202000  0.62593000  1.0
  H  H98  1  0.62491000  0.19922000  0.63676000  1.0
  H  H99  1  0.39205000  0.19626000  0.62472000  1.0
  H  H100  1  0.46491000  0.21848000  0.65597000  1.0
  H  H101  1  0.19973000  0.83546000  0.84410000  1.0
  H  H102  1  0.14570000  0.85135000  0.81081000  1.0
  H  H103  1  0.83545000  0.78097000  0.88735000  1.0
  H  H104  1  0.87728000  0.77624000  0.84953000  1.0
  H  H105  1  0.05289000  0.79317000  0.87503000  1.0
  H  H106  1  0.64837000  0.82042000  0.89510000  1.0
  H  H107  1  0.46554000  0.85827000  0.90996000  1.0
  H  H108  1  0.42389000  0.88823000  0.88433000  1.0
  H  H109  1  0.59085000  0.89548000  0.91419000  1.0
  H  H110  1  0.64563000  0.92952000  0.87730000  1.0
  H  H111  1  0.70700000  0.93334000  0.84133000  1.0
  H  H112  1  0.86573000  0.93941000  0.92002000  1.0
  H  H113  1  0.41854000  0.96125000  0.90067000  1.0
  H  H114  1  0.32779000  0.95886000  0.82272000  1.0
  H  H115  1  0.02446000  0.94851000  0.83108000  1.0
  H  H116  1  0.06705000  0.90113000  0.81243000  1.0
  H  H117  1  0.90412000  0.87750000  0.79086000  1.0
  H  H118  1  0.83984000  0.91242000  0.80634000  1.0
  H  H119  1  0.66710000  0.80286000  0.31483000  1.0
  H  H120  1  0.62966000  0.82236000  0.28360000  1.0
  H  H121  1  0.74964000  0.87194000  0.27375000  1.0
  H  H122  1  0.51562000  0.86708000  0.26251000  1.0
  H  H123  1  0.61807000  0.90508000  0.27014000  1.0
  H  H124  1  0.56468000  0.92681000  0.31406000  1.0
  H  H125  1  0.53689000  0.95551000  0.35500000  1.0
  H  H126  1  0.63354000  0.93961000  0.38712000  1.0
  H  H127  1  0.39157000  0.93751000  0.38049000  1.0
  H  H128  1  0.63131000  0.89527000  0.41169000  1.0
  H  H129  1  0.57141000  0.85573000  0.41368000  1.0
  H  H130  1  0.43085000  0.92833000  0.43387000  1.0
  H  H131  1  0.90075000  0.89204000  0.45393000  1.0
  H  H132  1  0.94787000  0.81853000  0.41634000  1.0
  H  H133  1  0.22316000  0.83841000  0.39937000  1.0
  H  H134  1  0.71735000  0.82202000  0.38193000  1.0
  H  H135  1  0.47985000  0.81299000  0.38698000  1.0
  H  H136  1  0.59197000  0.79688000  0.35772000  1.0
  H  H137  1  0.93493000  0.06614000  0.06991000  1.0
  H  H138  1  0.77666000  0.05233000  0.09349000  1.0
  H  H139  1  0.37600000  0.04923000  0.06164000  1.0
  H  H140  1  0.26407000  0.06480000  0.09158000  1.0
  H  H141  1  0.46413000  0.04566000  0.09902000  1.0
  H  H142  1  0.29161000  0.11812000  0.09191000  1.0
  H  H143  1  0.27124000  0.17203000  0.08379000  1.0
  H  H144  1  0.44796000  0.19349000  0.06733000  1.0
  H  H145  1  0.45060000  0.19012000  0.10668000  1.0
  H  H146  1  0.73939000  0.20086000  0.08383000  1.0
  H  H147  1  0.93212000  0.18561000  0.07242000  1.0
  H  H148  1  0.69434000  0.20729000  0.13512000  1.0
  H  H149  1  0.09354000  0.17628000  0.19606000  1.0
  H  H150  1  0.28379000  0.13917000  0.17906000  1.0
  H  H151  1  0.06273000  0.14169000  0.10772000  1.0
  H  H152  1  0.00965000  0.14853000  0.04736000  1.0
  H  H153  1  0.05639000  0.11106000  0.05996000  1.0
  H  H154  1  0.91703000  0.11596000  0.02729000  1.0
  H  H155  1  0.55697000  0.20926000  0.33229000  1.0
  H  H156  1  0.44306000  0.20122000  0.29924000  1.0
  H  H157  1  0.19879000  0.17164000  0.30058000  1.0
  H  H158  1  0.29903000  0.15299000  0.26981000  1.0
  H  H159  1  0.14033000  0.13190000  0.29142000  1.0
  H  H160  1  0.27401000  0.09511000  0.31814000  1.0
  H  H161  1  0.46121000  0.05166000  0.33992000  1.0
  H  H162  1  0.34629000  0.06836000  0.36965000  1.0
  H  H163  1  0.58349000  0.06251000  0.37317000  1.0
  H  H164  1  0.61077000  0.10991000  0.40071000  1.0
  H  H165  1  0.72175000  0.14660000  0.39715000  1.0
  H  H166  1  0.76574000  0.06673000  0.41472000  1.0
  H  H167  1  0.32535000  0.08345000  0.43783000  1.0
  H  H168  1  0.34970000  0.16022000  0.40660000  1.0
  H  H169  1  0.05318000  0.15198000  0.39178000  1.0
  H  H170  1  0.97891000  0.14773000  0.34463000  1.0
  H  H171  1  0.91889000  0.17872000  0.32408000  1.0
  H  H172  1  0.88888000  0.18088000  0.36322000  1.0
  H  H173  1  0.88470000  0.78395000  0.16754000  1.0
  H  H174  1  0.82249000  0.79780000  0.20050000  1.0
  H  H175  1  0.59885000  0.83657000  0.19760000  1.0
  H  H176  1  0.77780000  0.84217000  0.22498000  1.0
  H  H177  1  0.66889000  0.87512000  0.21210000  1.0
  H  H178  1  0.74969000  0.90042000  0.16982000  1.0
  H  H179  1  0.81200000  0.93029000  0.12997000  1.0
  H  H180  1  0.81030000  0.90569000  0.09808000  1.0
  H  H181  1  0.01860000  0.92512000  0.11308000  1.0
  H  H182  1  0.94763000  0.86491000  0.08226000  1.0
  H  H183  1  0.04055000  0.83016000  0.09040000  1.0
  H  H184  1  0.13339000  0.91248000  0.06937000  1.0
  H  H185  1  0.64597000  0.89335000  0.03731000  1.0
  H  H186  1  0.63412000  0.81600000  0.06793000  1.0
  H  H187  1  0.35867000  0.82472000  0.08720000  1.0
  H  H188  1  0.34622000  0.83508000  0.13713000  1.0
  H  H189  1  0.28519000  0.80935000  0.16416000  1.0
  H  H190  1  0.20201000  0.80045000  0.12691000  1.0
  H  H191  1  0.54185000  0.69395000  0.14829000  1.0
  H  H192  1  0.70586000  0.68638000  0.17533000  1.0
  H  H193  1  0.07155000  0.63160000  0.18526000  1.0
  H  H194  1  0.21530000  0.65728000  0.20730000  1.0
  H  H195  1  0.16065000  0.66640000  0.16935000  1.0
  H  H196  1  0.21707000  0.58669000  0.18218000  1.0
  H  H197  1  0.31429000  0.53800000  0.17423000  1.0
  H  H198  1  0.54915000  0.53706000  0.18267000  1.0
  H  H199  1  0.46366000  0.53482000  0.14492000  1.0
  H  H200  1  0.77544000  0.55296000  0.15391000  1.0
  H  H201  1  0.90857000  0.58763000  0.16120000  1.0
  H  H202  1  0.57822000  0.56039000  0.10060000  1.0
  H  H203  1  0.98261000  0.56517000  0.03594000  1.0
  H  H204  1  0.26851000  0.58549000  0.05101000  1.0
  H  H205  1  0.11617000  0.59399000  0.12428000  1.0
  H  H206  1  0.91989000  0.63955000  0.14106000  1.0
  H  H207  1  0.76260000  0.63636000  0.11008000  1.0
  H  H208  1  0.78442000  0.67071000  0.13184000  1.0
  H  H209  1  0.30771000  0.66320000  0.33472000  1.0
  H  H210  1  0.37922000  0.63951000  0.30725000  1.0
  H  H211  1  0.84782000  0.71473000  0.36704000  1.0
  H  H212  1  0.71293000  0.71860000  0.33426000  1.0
  H  H213  1  0.63044000  0.72979000  0.36943000  1.0
  H  H214  1  0.63979000  0.68322000  0.40851000  1.0
  H  H215  1  0.56466000  0.64147000  0.43973000  1.0
  H  H216  1  0.68928000  0.60858000  0.43064000  1.0
  H  H217  1  0.44871000  0.60745000  0.42330000  1.0
  H  H218  1  0.70722000  0.57359000  0.39067000  1.0
  H  H219  1  0.67592000  0.56803000  0.35267000  1.0
  H  H220  1  0.47567000  0.54776000  0.41669000  1.0
  H  H221  1  0.95005000  0.52574000  0.37713000  1.0
  H  H222  1  0.89994000  0.54172000  0.32865000  1.0
  H  H223  1  0.34395000  0.58087000  0.33095000  1.0
  H  H224  1  0.84821000  0.60042000  0.32578000  1.0
  H  H225  1  0.63633000  0.59462000  0.30493000  1.0
  H  H226  1  0.79221000  0.62909000  0.30135000  1.0
  H  H227  1  0.24077000  0.17540000  0.80399000  1.0
  H  H228  1  0.21186000  0.21255000  0.81355000  1.0
  H  H229  1  0.36479000  0.23741000  0.85663000  1.0
  H  H230  1  0.13902000  0.24693000  0.84764000  1.0
  H  H231  1  0.22681000  0.25197000  0.88418000  1.0
  H  H232  1  0.14902000  0.21392000  0.91572000  1.0
  H  H233  1  0.09982000  0.18059000  0.95275000  1.0
  H  H234  1  0.23190000  0.14786000  0.94822000  1.0
  H  H235  1  0.98822000  0.14336000  0.94413000  1.0
  H  H236  1  0.20761000  0.10633000  0.91902000  1.0
  H  H237  1  0.27433000  0.09858000  0.88458000  1.0
  H  H238  1  0.88658000  0.09486000  0.93319000  1.0
  H  H239  1  0.68839000  0.00606000  0.89481000  1.0
  H  H240  1  0.78042000  0.99338000  0.84799000  1.0
  H  H241  1  0.08759000  0.06150000  0.85233000  1.0
  H  H242  1  0.23330000  0.10552000  0.83852000  1.0
  H  H243  1  0.99312000  0.10877000  0.83115000  1.0
  H  H244  1  0.16378000  0.12919000  0.81170000  1.0
  H  H245  1  0.67427000  0.27786000  0.64911000  1.0
  H  H246  1  0.52354000  0.27072000  0.67630000  1.0
  H  H247  1  0.23863000  0.31976000  0.71130000  1.0
  H  H248  1  0.40652000  0.29221000  0.71327000  1.0
  H  H249  1  0.43554000  0.32816000  0.73451000  1.0
  H  H250  1  0.41269000  0.37910000  0.70656000  1.0
  H  H251  1  0.51841000  0.42768000  0.68947000  1.0
  H  H252  1  0.39933000  0.42765000  0.65462000  1.0
  H  H253  1  0.64351000  0.43062000  0.65706000  1.0
  H  H254  1  0.50609000  0.41076000  0.61183000  1.0
  H  H255  1  0.38333000  0.37720000  0.59928000  1.0
  H  H256  1  0.82361000  0.42373000  0.59745000  1.0
  H  H257  1  0.85942000  0.39394000  0.50723000  1.0
  H  H258  1  0.57075000  0.32429000  0.51567000  1.0
  H  H259  1  0.49188000  0.34544000  0.56040000  1.0
  H  H260  1  0.41346000  0.32241000  0.59935000  1.0
  H  H261  1  0.65379000  0.31607000  0.59781000  1.0
  H  H262  1  0.49417000  0.29012000  0.61572000  1.0
  H  H263  1  0.10730000  0.63579000  0.70129000  1.0
  H  H264  1  0.96779000  0.65899000  0.68317000  1.0
  H  H265  1  0.64249000  0.64122000  0.69887000  1.0
  H  H266  1  0.49961000  0.67055000  0.70957000  1.0
  H  H267  1  0.43263000  0.62868000  0.71267000  1.0
  H  H268  1  0.64404000  0.62923000  0.65101000  1.0
  H  H269  1  0.66666667  0.60845000  0.60468000  1.0
  H  H270  1  0.62287000  0.64298000  0.58409000  1.0
  H  H271  1  0.48597000  0.60673000  0.57880000  1.0
  H  H272  1  0.33580000  0.65060000  0.56452000  1.0
  H  H273  1  0.18582000  0.67584000  0.57671000  1.0
  H  H274  1  0.22569000  0.58788000  0.56363000  1.0
  H  H275  1  0.72072000  0.57809000  0.51549000  1.0
  H  H276  1  0.62999000  0.65874000  0.52796000  1.0
  H  H277  1  0.89425000  0.66594000  0.55709000  1.0
  H  H278  1  0.97592000  0.68069000  0.60765000  1.0
  H  H279  1  0.88971000  0.64354000  0.62079000  1.0
  H  H280  1  0.91377000  0.67817000  0.64351000  1.0
  H  H281  1  0.54290000  0.52602000  0.89283000  1.0
  H  H282  1  0.42645000  0.54800000  0.91506000  1.0
  H  H283  1  0.09136000  0.53371000  0.89166000  1.0
  H  H284  1  0.95347000  0.52812000  0.92188000  1.0
  H  H285  1  0.87850000  0.51340000  0.88516000  1.0
  H  H286  1  0.08113000  0.57926000  0.86660000  1.0
  H  H287  1  0.96574000  0.61791000  0.82506000  1.0
  H  H288  1  0.12256000  0.63589000  0.85194000  1.0
  H  H289  1  0.91959000  0.65434000  0.84100000  1.0
  H  H290  1  0.83143000  0.67303000  0.88066000  1.0
  H  H291  1  0.74086000  0.66318000  0.91356000  1.0
  H  H292  1  0.61635000  0.67120000  0.83339000  1.0
  H  H293  1  0.10922000  0.70701000  0.85281000  1.0
  H  H294  1  0.04810000  0.71451000  0.90175000  1.0
  H  H295  1  0.45307000  0.67870000  0.92219000  1.0
  H  H296  1  0.36740000  0.61696000  0.89915000  1.0
  H  H297  1  0.40562000  0.59274000  0.92975000  1.0
  H  H298  1  0.51056000  0.62974000  0.93081000  1.0
  H  H299  1  0.10885000  0.29549000  0.82991000  1.0
  H  H300  1  0.18332000  0.30904000  0.79780000  1.0
  H  H301  1  0.34625000  0.37426000  0.77758000  1.0
  H  H302  1  0.16993000  0.34608000  0.76677000  1.0
  H  H303  1  0.13117000  0.38681000  0.76522000  1.0
  H  H304  1  0.23629000  0.41888000  0.81288000  1.0
  H  H305  1  0.19898000  0.45037000  0.86161000  1.0
  H  H306  1  0.40942000  0.43238000  0.86670000  1.0
  H  H307  1  0.24443000  0.42953000  0.89424000  1.0
  H  H308  1  0.37077000  0.37487000  0.89656000  1.0
  H  H309  1  0.23706000  0.34005000  0.90014000  1.0
  H  H310  1  0.91320000  0.39346000  0.91246000  1.0
  H  H311  1  0.07571000  0.41333000  0.00295000  1.0
  H  H312  1  0.30879000  0.38716000  0.02147000  1.0
  H  H313  1  0.39157000  0.35863000  0.94968000  1.0
  H  H314  1  0.90283000  0.33287000  0.89375000  1.0
  H  H315  1  0.79228000  0.32040000  0.86014000  1.0
  H  H316  1  0.99430000  0.30212000  0.87351000  1.0
  H  H317  1  0.41482000  0.26610000  0.31720000  1.0
  H  H318  1  0.43802000  0.28263000  0.28365000  1.0
  H  H319  1  0.68600000  0.31710000  0.26555000  1.0
  H  H320  1  0.46359000  0.32837000  0.25787000  1.0
  H  H321  1  0.64801000  0.35726000  0.25887000  1.0
  H  H322  1  0.68067000  0.38820000  0.30116000  1.0
  H  H323  1  0.70578000  0.42352000  0.34002000  1.0
  H  H324  1  0.84591000  0.40649000  0.36711000  1.0
  H  H325  1  0.61346000  0.41262000  0.37398000  1.0
  H  H326  1  0.77885000  0.36934000  0.40018000  1.0
  H  H327  1  0.73922000  0.33002000  0.40434000  1.0
  H  H328  1  0.62409000  0.40330000  0.43026000  1.0
  H  H329  1  0.12316000  0.37126000  0.46672000  1.0
  H  H330  1  0.13261000  0.29375000  0.43541000  1.0
  H  H331  1  0.37881000  0.31125000  0.40935000  1.0
  H  H332  1  0.60028000  0.28866000  0.38874000  1.0
  H  H333  1  0.39673000  0.27858000  0.36773000  1.0
  H  H334  1  0.61176000  0.27017000  0.35465000  1.0
  H  H335  1  0.27882000  0.35181000  0.20578000  1.0
  H  H336  1  0.28931000  0.31240000  0.19769000  1.0
  H  H337  1  0.42955000  0.28984000  0.15994000  1.0
  H  H338  1  0.20071000  0.27399000  0.16111000  1.0
  H  H339  1  0.31448000  0.27280000  0.12767000  1.0
  H  H340  1  0.27150000  0.31207000  0.09499000  1.0
  H  H341  1  0.24379000  0.34702000  0.05859000  1.0
  H  H342  1  0.34062000  0.38411000  0.07236000  1.0
  H  H343  1  0.10122000  0.37847000  0.06338000  1.0
  H  H344  1  0.19988000  0.42057000  0.09751000  1.0
  H  H345  1  0.22145000  0.42843000  0.13503000  1.0
  H  H346  1  0.90469000  0.41645000  0.07167000  1.0
  H  H347  1  0.46889000  0.45267000  0.11797000  1.0
  H  H348  1  0.74879000  0.47526000  0.18039000  1.0
  H  H349  1  0.98559000  0.45235000  0.15836000  1.0
  H  H350  1  0.90491000  0.39473000  0.16948000  1.0
  H  H351  1  0.03105000  0.38074000  0.19846000  1.0
  H  H352  1  0.12829000  0.41300000  0.18006000  1.0
  C  C1  1  0.20863000  0.91076000  0.50621000  1.0
  C  C2  1  0.15625000  0.93803000  0.49405000  1.0
  C  C3  1  0.14034000  0.94144000  0.46422000  1.0
  C  C4  1  0.10337000  0.96961000  0.45226000  1.0
  C  C5  1  0.09483000  0.97395000  0.42237000  1.0
  C  C6  1  0.05697000  0.01751000  0.44631000  1.0
  C  C7  1  0.06730000  0.00452000  0.41867000  1.0
  C  C8  1  0.08650000  0.95463000  0.56754000  1.0
  C  C9  1  0.99968000  0.06041000  0.47830000  1.0
  C  C10  1  0.97125000  0.09163000  0.48319000  1.0
  C  C11  1  0.97317000  0.09611000  0.51238000  1.0
  C  C12  1  0.99771000  0.06725000  0.52436000  1.0
  C  C13  1  0.01246000  0.06307000  0.55404000  1.0
  C  C14  1  0.00924000  0.03363000  0.56543000  1.0
  C  C15  1  0.98042000  0.02823000  0.59461000  1.0
  C  C16  1  0.98687000  0.99702000  0.59762000  1.0
  C  C17  1  0.03017000  0.98475000  0.57087000  1.0
  C  C18  1  0.02879000  0.04857000  0.45080000  1.0
  C  C19  1  0.13745000  0.94407000  0.54026000  1.0
  C  C20  1  0.19916000  0.91460000  0.53531000  1.0
  C  C21  1  0.97229000  0.25110000  0.65953000  1.0
  C  C22  1  0.91113000  0.25931000  0.68662000  1.0
  C  C23  1  0.79500000  0.28305000  0.69224000  1.0
  C  C24  1  0.80977000  0.29700000  0.72030000  1.0
  C  C25  1  0.79901000  0.32847000  0.72703000  1.0
  C  C26  1  0.87100000  0.30332000  0.76670000  1.0
  C  C27  1  0.83110000  0.33227000  0.75672000  1.0
  C  C28  1  0.18135000  0.19923000  0.70711000  1.0
  C  C29  1  0.84390000  0.26526000  0.80326000  1.0
  C  C30  1  0.80122000  0.25582000  0.83097000  1.0
  C  C31  1  0.81388000  0.22407000  0.83137000  1.0
  C  C32  1  0.86516000  0.21539000  0.80399000  1.0
  C  C33  1  0.96163000  0.18941000  0.79875000  1.0
  C  C34  1  0.96282000  0.17925000  0.76988000  1.0
  C  C35  1  0.00979000  0.14986000  0.76150000  1.0
  C  C36  1  0.08826000  0.15315000  0.73522000  1.0
  C  C37  1  0.08382000  0.18426000  0.72848000  1.0
  C  C38  1  0.90015000  0.29578000  0.79574000  1.0
  C  C39  1  0.10493000  0.22452000  0.69414000  1.0
  C  C40  1  0.09543000  0.22910000  0.66441000  1.0
  C  C41  1  0.92357000  0.05733000  0.01075000  1.0
  C  C42  1  0.76428000  0.04261000  0.01907000  1.0
  C  C43  1  0.72096000  0.03758000  0.04766000  1.0
  C  C44  1  0.63867000  0.00824000  0.05391000  1.0
  C  C45  1  0.64963000  0.99421000  0.08086000  1.0
  C  C46  1  0.50508000  0.96221000  0.04832000  1.0
  C  C47  1  0.56635000  0.96497000  0.07721000  1.0
  C  C48  1  0.67532000  0.04137000  0.94398000  1.0
  C  C49  1  0.31135000  0.93742000  0.00978000  1.0
  C  C50  1  0.20455000  0.91238000  0.99753000  1.0
  C  C51  1  0.14384000  0.92169000  0.97088000  1.0
  C  C52  1  0.21422000  0.95211000  0.96791000  1.0
  C  C53  1  0.18948000  0.96915000  0.94277000  1.0
  C  C54  1  0.26129000  0.99996000  0.94185000  1.0
  C  C55  1  0.23848000  0.01811000  0.91749000  1.0
  C  C56  1  0.38947000  0.03746000  0.91594000  1.0
  C  C57  1  0.49569000  0.03130000  0.94020000  1.0
  C  C58  1  0.40259000  0.93637000  0.03676000  1.0
  C  C59  1  0.75292000  0.04204000  0.97223000  1.0
  C  C60  1  0.91737000  0.05691000  0.98093000  1.0
  C  C61  1  0.32966000  0.72757000  0.33480000  1.0
  C  C62  1  0.36265000  0.71836000  0.30645000  1.0
  C  C63  1  0.41143000  0.68877000  0.29775000  1.0
  C  C64  1  0.45939000  0.68409000  0.26885000  1.0
  C  C65  1  0.54789000  0.65887000  0.25933000  1.0
  C  C66  1  0.50605000  0.69096000  0.22319000  1.0
  C  C67  1  0.58641000  0.66396000  0.23101000  1.0
  C  C68  1  0.38809000  0.79909000  0.29772000  1.0
  C  C69  1  0.35407000  0.72245000  0.18790000  1.0
  C  C70  1  0.26979000  0.72565000  0.16076000  1.0
  C  C71  1  0.14974000  0.74778000  0.16393000  1.0
  C  C72  1  0.16962000  0.75882000  0.19259000  1.0
  C  C73  1  0.09221000  0.78566000  0.20314000  1.0
  C  C74  1  0.15388000  0.79874000  0.23017000  1.0
  C  C75  1  0.13349000  0.82929000  0.23954000  1.0
  C  C76  1  0.22170000  0.83328000  0.26623000  1.0
  C  C77  1  0.29483000  0.80533000  0.27199000  1.0
  C  C78  1  0.47389000  0.69964000  0.19431000  1.0
  C  C79  1  0.36861000  0.76858000  0.30697000  1.0
  C  C80  1  0.33438000  0.75964000  0.33500000  1.0
  C  C81  1  0.03345000  0.25934000  0.33782000  1.0
  C  C82  1  0.07254000  0.26701000  0.30966000  1.0
  C  C83  1  0.18947000  0.29197000  0.30289000  1.0
  C  C84  1  0.12495000  0.31195000  0.28227000  1.0
  C  C85  1  0.17104000  0.34360000  0.28149000  1.0
  C  C86  1  0.03801000  0.32612000  0.23987000  1.0
  C  C87  1  0.11735000  0.35267000  0.25428000  1.0
  C  C88  1  0.71733000  0.21061000  0.29376000  1.0
  C  C89  1  0.91721000  0.29752000  0.19761000  1.0
  C  C90  1  0.86661000  0.29502000  0.16835000  1.0
  C  C91  1  0.82826000  0.26401000  0.16231000  1.0
  C  C92  1  0.84653000  0.24876000  0.18853000  1.0
  C  C93  1  0.83473000  0.21641000  0.19183000  1.0
  C  C94  1  0.79400000  0.20442000  0.21883000  1.0
  C  C95  1  0.70634000  0.17544000  0.22241000  1.0
  C  C96  1  0.66238000  0.17432000  0.25114000  1.0
  C  C97  1  0.72860000  0.20247000  0.26416000  1.0
  C  C98  1  0.02717000  0.32228000  0.20976000  1.0
  C  C99  1  0.83966000  0.23416000  0.30606000  1.0
  C  C100  1  0.88255000  0.23911000  0.33564000  1.0
  C  C101  1  0.73869000  0.38863000  0.00764000  1.0
  C  C102  1  0.72627000  0.41627000  0.99260000  1.0
  C  C103  1  0.80181000  0.42176000  0.96562000  1.0
  C  C104  1  0.74671000  0.44678000  0.94940000  1.0
  C  C105  1  0.72843000  0.44691000  0.91927000  1.0
  C  C106  1  0.64772000  0.49148000  0.93797000  1.0
  C  C107  1  0.66091000  0.47456000  0.91216000  1.0
  C  C108  1  0.56961000  0.43938000  0.06022000  1.0
  C  C109  1  0.63919000  0.53917000  0.96695000  1.0
  C  C110  1  0.66790000  0.57142000  0.97171000  1.0
  C  C111  1  0.68153000  0.57663000  0.00124000  1.0
  C  C112  1  0.65841000  0.54770000  0.01336000  1.0
  C  C113  1  0.63711000  0.54357000  0.04287000  1.0
  C  C114  1  0.54180000  0.51648000  0.05043000  1.0
  C  C115  1  0.41796000  0.51333000  0.07184000  1.0
  C  C116  1  0.38122000  0.48188000  0.07442000  1.0
  C  C117  1  0.48993000  0.46732000  0.05538000  1.0
  C  C118  1  0.62014000  0.52376000  0.93966000  1.0
  C  C119  1  0.62474000  0.42422000  0.03513000  1.0
  C  C120  1  0.67455000  0.39373000  0.03461000  1.0
  C  C121  1  0.34074000  0.78322000  0.83741000  1.0
  C  C122  1  0.21065000  0.78106000  0.81476000  1.0
  C  C123  1  0.08127000  0.80263000  0.80978000  1.0
  C  C124  1  0.96378000  0.79788000  0.78549000  1.0
  C  C125  1  0.82278000  0.81613000  0.77867000  1.0
  C  C126  1  0.90519000  0.79142000  0.73955000  1.0
  C  C127  1  0.78959000  0.81282000  0.74925000  1.0
  C  C128  1  0.34760000  0.70643000  0.81159000  1.0
  C  C129  1  0.03988000  0.76332000  0.70246000  1.0
  C  C130  1  0.07367000  0.75643000  0.67385000  1.0
  C  C131  1  0.12270000  0.72625000  0.67357000  1.0
  C  C132  1  0.12082000  0.71621000  0.70221000  1.0
  C  C133  1  0.15456000  0.68618000  0.71123000  1.0
  C  C134  1  0.20321000  0.68192000  0.74088000  1.0
  C  C135  1  0.23315000  0.65326000  0.75337000  1.0
  C  C136  1  0.29462000  0.65936000  0.78136000  1.0
  C  C137  1  0.29574000  0.69123000  0.78544000  1.0
  C  C138  1  0.96592000  0.79038000  0.71156000  1.0
  C  C139  1  0.34192000  0.73834000  0.81387000  1.0
  C  C140  1  0.42315000  0.75606000  0.83682000  1.0
  C  C141  1  0.05871000  0.57609000  0.47895000  1.0
  C  C142  1  0.06413000  0.54943000  0.49567000  1.0
  C  C143  1  0.02543000  0.54900000  0.52529000  1.0
  C  C144  1  0.99853000  0.52037000  0.53908000  1.0
  C  C145  1  0.89925000  0.51623000  0.56376000  1.0
  C  C146  1  0.96428000  0.47048000  0.54569000  1.0
  C  C147  1  0.87225000  0.48451000  0.56732000  1.0
  C  C148  1  0.16025000  0.51904000  0.42724000  1.0
  C  C149  1  0.14215000  0.42996000  0.52979000  1.0
  C  C150  1  0.21975000  0.40206000  0.53456000  1.0
  C  C151  1  0.33108000  0.39865000  0.51231000  1.0
  C  C152  1  0.31152000  0.42364000  0.49399000  1.0
  C  C153  1  0.34847000  0.42217000  0.46439000  1.0
  C  C154  1  0.30745000  0.44653000  0.44622000  1.0
  C  C155  1  0.32422000  0.44522000  0.41617000  1.0
  C  C156  1  0.26590000  0.47211000  0.40571000  1.0
  C  C157  1  0.21354000  0.48894000  0.42952000  1.0
  C  C158  1  0.99371000  0.43866000  0.54424000  1.0
  C  C159  1  0.11017000  0.53549000  0.45152000  1.0
  C  C160  1  0.08315000  0.56707000  0.45097000  1.0
  C  C161  1  0.10758000  0.93442000  0.59466000  1.0
  C  C162  1  0.93531000  0.92369000  0.60996000  1.0
  C  C163  1  0.77782000  0.91161000  0.59387000  1.0
  C  C164  1  0.75697000  0.91221000  0.56097000  1.0
  C  C165  1  0.63289000  0.89832000  0.60865000  1.0
  C  C166  1  0.64229000  0.89401000  0.63875000  1.0
  C  C167  1  0.48388000  0.87678000  0.65210000  1.0
  C  C168  1  0.79866000  0.90498000  0.65548000  1.0
  C  C169  1  0.81599000  0.89783000  0.68812000  1.0
  C  C170  1  0.95789000  0.87508000  0.69471000  1.0
  C  C171  1  0.91549000  0.84272000  0.69045000  1.0
  C  C172  1  0.03473000  0.82107000  0.70067000  1.0
  C  C173  1  0.20663000  0.83193000  0.71143000  1.0
  C  C174  1  0.24946000  0.86375000  0.71643000  1.0
  C  C175  1  0.12214000  0.88521000  0.70917000  1.0
  C  C176  1  0.93972000  0.92208000  0.64121000  1.0
  C  C177  1  0.09470000  0.93881000  0.65909000  1.0
  C  C178  1  0.38494000  0.19675000  0.70790000  1.0
  C  C179  1  0.44471000  0.16764000  0.69212000  1.0
  C  C180  1  0.48286000  0.14050000  0.70811000  1.0
  C  C181  1  0.52353000  0.14147000  0.74072000  1.0
  C  C182  1  0.49157000  0.11178000  0.69336000  1.0
  C  C183  1  0.47462000  0.10942000  0.66299000  1.0
  C  C184  1  0.47000000  0.07726000  0.64864000  1.0
  C  C185  1  0.46564000  0.13695000  0.64654000  1.0
  C  C186  1  0.44903000  0.13397000  0.61341000  1.0
  C  C187  1  0.26014000  0.12420000  0.60333000  1.0
  C  C188  1  0.22296000  0.09838000  0.58448000  1.0
  C  C189  1  0.04654000  0.09049000  0.57401000  1.0
  C  C190  1  0.90827000  0.10905000  0.58177000  1.0
  C  C191  1  0.94681000  0.13541000  0.59992000  1.0
  C  C192  1  0.12101000  0.14219000  0.61130000  1.0
  C  C193  1  0.45975000  0.16660000  0.66121000  1.0
  C  C194  1  0.48547000  0.19658000  0.64402000  1.0
  C  C195  1  0.09484000  0.83401000  0.82650000  1.0
  C  C196  1  0.92837000  0.84367000  0.84145000  1.0
  C  C197  1  0.84876000  0.82439000  0.86285000  1.0
  C  C198  1  0.90720000  0.79190000  0.86895000  1.0
  C  C199  1  0.71421000  0.83578000  0.87961000  1.0
  C  C200  1  0.67134000  0.86705000  0.87827000  1.0
  C  C201  1  0.53025000  0.87790000  0.89788000  1.0
  C  C202  1  0.75949000  0.88745000  0.85870000  1.0
  C  C203  1  0.74948000  0.92297000  0.86226000  1.0
  C  C204  1  0.92829000  0.93800000  0.87388000  1.0
  C  C205  1  0.96926000  0.94271000  0.90421000  1.0
  C  C206  1  0.14523000  0.95301000  0.91381000  1.0
  C  C207  1  0.28118000  0.95470000  0.89337000  1.0
  C  C208  1  0.23762000  0.95362000  0.86358000  1.0
  C  C209  1  0.05944000  0.94703000  0.85404000  1.0
  C  C210  1  0.87030000  0.87442000  0.83762000  1.0
  C  C211  1  0.92352000  0.89259000  0.81077000  1.0
  C  C212  1  0.56682000  0.81758000  0.30466000  1.0
  C  C213  1  0.55455000  0.84767000  0.32276000  1.0
  C  C214  1  0.56888000  0.87704000  0.30877000  1.0
  C  C215  1  0.61498000  0.88039000  0.27711000  1.0
  C  C216  1  0.55286000  0.90457000  0.32488000  1.0
  C  C217  1  0.53053000  0.90455000  0.35487000  1.0
  C  C218  1  0.52252000  0.93589000  0.37036000  1.0
  C  C219  1  0.52972000  0.87602000  0.36999000  1.0
  C  C220  1  0.52807000  0.87716000  0.40330000  1.0
  C  C221  1  0.34632000  0.88309000  0.41451000  1.0
  C  C222  1  0.32242000  0.91030000  0.43106000  1.0
  C  C223  1  0.16072000  0.91389000  0.44478000  1.0
  C  C224  1  0.02318000  0.88998000  0.44239000  1.0
  C  C225  1  0.04616000  0.86271000  0.42634000  1.0
  C  C226  1  0.20580000  0.85962000  0.41178000  1.0
  C  C227  1  0.54742000  0.84743000  0.35398000  1.0
  C  C228  1  0.58377000  0.81829000  0.37087000  1.0
  C  C229  1  0.78873000  0.06178000  0.07135000  1.0
  C  C230  1  0.68953000  0.09220000  0.07122000  1.0
  C  C231  1  0.50971000  0.09133000  0.08014000  1.0
  C  C232  1  0.39824000  0.06099000  0.08331000  1.0
  C  C233  1  0.42791000  0.11921000  0.08517000  1.0
  C  C234  1  0.51968000  0.14840000  0.08279000  1.0
  C  C235  1  0.41761000  0.17757000  0.08559000  1.0
  C  C236  1  0.70293000  0.15006000  0.07647000  1.0
  C  C237  1  0.81635000  0.17977000  0.08600000  1.0
  C  C238  1  0.88145000  0.17691000  0.11736000  1.0
  C  C239  1  0.80979000  0.19426000  0.13983000  1.0
  C  C240  1  0.88749000  0.19475000  0.16828000  1.0
  C  C241  1  0.03010000  0.17581000  0.17436000  1.0
  C  C242  1  0.09408000  0.15677000  0.15245000  1.0
  C  C243  1  0.01695000  0.15704000  0.12428000  1.0
  C  C244  1  0.78143000  0.12220000  0.06712000  1.0
  C  C245  1  0.95053000  0.12453000  0.04996000  1.0
  C  C246  1  0.56658000  0.19585000  0.31163000  1.0
  C  C247  1  0.56361000  0.16083000  0.31945000  1.0
  C  C248  1  0.40712000  0.14070000  0.31243000  1.0
  C  C249  1  0.25439000  0.14994000  0.29244000  1.0
  C  C250  1  0.38946000  0.11088000  0.32445000  1.0
  C  C251  1  0.51014000  0.10147000  0.34599000  1.0
  C  C252  1  0.47416000  0.06929000  0.35815000  1.0
  C  C253  1  0.65568000  0.12229000  0.35593000  1.0
  C  C254  1  0.71734000  0.12218000  0.38827000  1.0
  C  C255  1  0.89366000  0.10848000  0.39656000  1.0
  C  C256  1  0.89162000  0.07993000  0.41146000  1.0
  C  C257  1  0.04629000  0.07094000  0.42654000  1.0
  C  C258  1  0.20711000  0.08958000  0.42537000  1.0
  C  C259  1  0.20932000  0.11862000  0.41218000  1.0
  C  C260  1  0.05278000  0.12808000  0.39831000  1.0
  C  C261  1  0.69491000  0.14966000  0.33951000  1.0
  C  C262  1  0.87915000  0.16562000  0.34336000  1.0
  C  C263  1  0.93666000  0.79950000  0.18592000  1.0
  C  C264  1  0.96374000  0.83244000  0.17313000  1.0
  C  C265  1  0.84659000  0.85589000  0.18075000  1.0
  C  C266  1  0.71671000  0.85223000  0.20520000  1.0
  C  C267  1  0.83774000  0.88259000  0.16369000  1.0
  C  C268  1  0.92201000  0.88502000  0.13704000  1.0
  C  C269  1  0.88898000  0.91292000  0.11840000  1.0
  C  C270  1  0.03187000  0.86127000  0.12811000  1.0
  C  C271  1  0.05902000  0.85574000  0.09543000  1.0
  C  C272  1  0.23416000  0.86856000  0.08330000  1.0
  C  C273  1  0.24503000  0.89772000  0.06941000  1.0
  C  C274  1  0.39458000  0.90684000  0.05320000  1.0
  C  C275  1  0.53274000  0.88672000  0.05041000  1.0
  C  C276  1  0.52128000  0.85735000  0.06309000  1.0
  C  C277  1  0.37189000  0.84831000  0.07927000  1.0
  C  C278  1  0.07177000  0.83762000  0.14841000  1.0
  C  C279  1  0.23281000  0.81917000  0.14374000  1.0
  C  C280  1  0.55997000  0.68264000  0.16960000  1.0
  C  C281  1  0.51308000  0.64735000  0.16507000  1.0
  C  C282  1  0.35325000  0.63143000  0.17481000  1.0
  C  C283  1  0.19319000  0.64784000  0.18472000  1.0
  C  C284  1  0.33764000  0.59869000  0.17438000  1.0
  C  C285  1  0.47510000  0.58095000  0.16504000  1.0
  C  C286  1  0.44934000  0.54576000  0.16678000  1.0
  C  C287  1  0.63109000  0.59619000  0.15383000  1.0
  C  C288  1  0.79306000  0.57767000  0.14731000  1.0
  C  C289  1  0.84031000  0.57706000  0.11563000  1.0
  C  C290  1  0.71260000  0.56580000  0.09410000  1.0
  C  C291  1  0.76055000  0.56121000  0.06500000  1.0
  C  C292  1  0.93895000  0.56949000  0.05783000  1.0
  C  C293  1  0.06579000  0.58205000  0.07902000  1.0
  C  C294  1  0.01598000  0.58542000  0.10783000  1.0
  C  C295  1  0.64155000  0.62936000  0.15149000  1.0
  C  C296  1  0.78490000  0.64498000  0.13300000  1.0
  C  C297  1  0.41801000  0.66199000  0.31932000  1.0
  C  C298  1  0.59466000  0.65943000  0.33705000  1.0
  C  C299  1  0.63023000  0.67980000  0.36141000  1.0
  C  C300  1  0.70803000  0.71268000  0.35771000  1.0
  C  C301  1  0.62510000  0.66750000  0.38957000  1.0
  C  C302  1  0.60517000  0.63494000  0.39327000  1.0
  C  C303  1  0.57598000  0.62234000  0.42337000  1.0
  C  C304  1  0.62534000  0.61494000  0.36872000  1.0
  C  C305  1  0.62057000  0.57971000  0.37168000  1.0
  C  C306  1  0.43087000  0.56619000  0.37377000  1.0
  C  C307  1  0.37952000  0.54999000  0.39861000  1.0
  C  C308  1  0.20494000  0.53637000  0.40041000  1.0
  C  C309  1  0.08244000  0.53760000  0.37649000  1.0
  C  C310  1  0.13412000  0.55348000  0.35125000  1.0
  C  C311  1  0.30602000  0.56836000  0.35032000  1.0
  C  C312  1  0.64365000  0.62855000  0.34095000  1.0
  C  C313  1  0.73180000  0.61207000  0.31665000  1.0
  C  C314  1  0.14363000  0.18898000  0.81562000  1.0
  C  C315  1  0.13785000  0.17969000  0.84772000  1.0
  C  C316  1  0.16214000  0.20327000  0.87008000  1.0
  C  C317  1  0.22583000  0.23673000  0.86428000  1.0
  C  C318  1  0.13971000  0.19543000  0.89910000  1.0
  C  C319  1  0.12002000  0.16434000  0.90758000  1.0
  C  C320  1  0.10952000  0.15852000  0.93988000  1.0
  C  C321  1  0.12288000  0.13980000  0.88629000  1.0
  C  C322  1  0.15758000  0.10663000  0.89599000  1.0
  C  C323  1  0.00022000  0.08249000  0.89243000  1.0
  C  C324  1  0.88485000  0.07767000  0.91565000  1.0
  C  C325  1  0.77838000  0.04951000  0.91753000  1.0
  C  C326  1  0.77037000  0.02788000  0.89387000  1.0
  C  C327  1  0.87216000  0.03372000  0.86935000  1.0
  C  C328  1  0.99280000  0.06005000  0.86946000  1.0
  C  C329  1  0.12561000  0.14758000  0.85605000  1.0
  C  C330  1  0.12730000  0.12150000  0.83330000  1.0
  C  C331  1  0.63606000  0.28725000  0.67033000  1.0
  C  C332  1  0.56563000  0.31999000  0.66630000  1.0
  C  C333  1  0.47423000  0.33476000  0.68856000  1.0
  C  C334  1  0.38563000  0.31752000  0.71321000  1.0
  C  C335  1  0.46460000  0.36718000  0.68793000  1.0
  C  C336  1  0.51967000  0.38441000  0.66376000  1.0
  C  C337  1  0.52003000  0.41959000  0.66627000  1.0
  C  C338  1  0.55128000  0.36829000  0.63714000  1.0
  C  C339  1  0.51954000  0.38542000  0.60801000  1.0
  C  C340  1  0.65004000  0.38339000  0.58331000  1.0
  C  C341  1  0.78341000  0.40803000  0.57928000  1.0
  C  C342  1  0.85697000  0.41278000  0.55151000  1.0
  C  C343  1  0.80653000  0.39093000  0.52877000  1.0
  C  C344  1  0.69105000  0.36488000  0.53325000  1.0
  C  C345  1  0.60427000  0.36246000  0.55961000  1.0
  C  C346  1  0.56574000  0.33501000  0.63861000  1.0
  C  C347  1  0.53389000  0.31489000  0.61130000  1.0
  C  C348  1  0.11030000  0.65822000  0.68990000  1.0
  C  C349  1  0.23188000  0.65466000  0.66392000  1.0
  C  C350  1  0.41051000  0.64636000  0.66934000  1.0
  C  C351  1  0.49985000  0.64683000  0.69934000  1.0
  C  C352  1  0.50940000  0.63603000  0.64647000  1.0
  C  C353  1  0.44108000  0.63425000  0.61777000  1.0
  C  C354  1  0.56057000  0.62245000  0.59499000  1.0
  C  C355  1  0.27126000  0.64536000  0.61074000  1.0
  C  C356  1  0.21937000  0.65108000  0.57861000  1.0
  C  C357  1  0.07167000  0.62889000  0.56451000  1.0
  C  C358  1  0.10095000  0.59740000  0.55733000  1.0
  C  C359  1  0.97541000  0.57888000  0.53950000  1.0
  C  C360  1  0.81601000  0.59165000  0.52996000  1.0
  C  C361  1  0.78777000  0.62292000  0.53601000  1.0
  C  C362  1  0.91536000  0.64145000  0.55320000  1.0
  C  C363  1  0.16367000  0.65503000  0.63406000  1.0
  C  C364  1  0.97653000  0.66472000  0.62641000  1.0
  C  C365  1  0.56469000  0.54159000  0.91223000  1.0
  C  C366  1  0.69159000  0.56891000  0.90264000  1.0
  C  C367  1  0.86285000  0.56277000  0.89248000  1.0
  C  C368  1  0.94985000  0.53270000  0.89820000  1.0
  C  C369  1  0.95488000  0.58473000  0.87560000  1.0
  C  C370  1  0.88682000  0.61336000  0.86932000  1.0
  C  C371  1  0.97789000  0.63190000  0.84584000  1.0
  C  C372  1  0.73966000  0.62315000  0.88476000  1.0
  C  C373  1  0.72118000  0.65826000  0.88978000  1.0
  C  C374  1  0.54614000  0.67003000  0.87875000  1.0
  C  C375  1  0.51446000  0.67550000  0.84884000  1.0
  C  C376  1  0.35892000  0.68973000  0.83962000  1.0
  C  C377  1  0.22987000  0.69615000  0.86001000  1.0
  C  C378  1  0.26450000  0.69217000  0.88972000  1.0
  C  C379  1  0.42401000  0.67997000  0.89900000  1.0
  C  C380  1  0.63458000  0.60018000  0.90030000  1.0
  C  C381  1  0.47024000  0.61015000  0.91549000  1.0
  C  C382  1  0.06760000  0.31075000  0.81198000  1.0
  C  C383  1  0.06375000  0.34406000  0.82433000  1.0
  C  C384  1  0.14220000  0.37016000  0.80931000  1.0
  C  C385  1  0.19904000  0.36894000  0.77803000  1.0
  C  C386  1  0.18354000  0.39867000  0.82455000  1.0
  C  C387  1  0.18390000  0.40030000  0.85506000  1.0
  C  C388  1  0.26363000  0.42974000  0.87042000  1.0
  C  C389  1  0.12713000  0.37344000  0.87041000  1.0
  C  C390  1  0.22886000  0.36581000  0.89847000  1.0
  C  C391  1  0.16548000  0.37765000  0.92717000  1.0
  C  C392  1  0.00575000  0.39282000  0.93082000  1.0
  C  C393  1  0.96779000  0.40548000  0.95857000  1.0
  C  C394  1  0.09437000  0.40258000  0.98178000  1.0
  C  C395  1  0.23867000  0.38411000  0.97884000  1.0
  C  C396  1  0.27536000  0.37219000  0.95169000  1.0
  C  C397  1  0.03696000  0.34801000  0.85473000  1.0
  C  C398  1  0.92626000  0.32421000  0.87134000  1.0
  C  C399  1  0.39116000  0.28803000  0.30574000  1.0
  C  C400  1  0.50368000  0.31625000  0.31965000  1.0
  C  C401  1  0.57477000  0.34037000  0.30189000  1.0
  C  C402  1  0.59296000  0.33567000  0.26932000  1.0
  C  C403  1  0.63831000  0.36897000  0.31492000  1.0
  C  C404  1  0.65033000  0.37328000  0.34535000  1.0
  C  C405  1  0.70746000  0.40570000  0.35736000  1.0
  C  C406  1  0.61752000  0.34720000  0.36371000  1.0
  C  C407  1  0.67070000  0.35054000  0.39655000  1.0
  C  C408  1  0.51757000  0.35685000  0.41626000  1.0
  C  C409  1  0.51723000  0.38523000  0.43253000  1.0
  C  C410  1  0.37354000  0.39083000  0.45059000  1.0
  C  C411  1  0.23631000  0.36719000  0.45343000  1.0
  C  C412  1  0.24282000  0.33830000  0.43949000  1.0
  C  C413  1  0.38035000  0.33348000  0.42046000  1.0
  C  C414  1  0.54855000  0.31800000  0.35024000  1.0
  C  C415  1  0.53826000  0.28759000  0.36656000  1.0
  C  C416  1  0.20060000  0.33185000  0.19452000  1.0
  C  C417  1  0.18155000  0.34013000  0.16252000  1.0
  C  C418  1  0.23515000  0.31921000  0.14067000  1.0
  C  C419  1  0.29822000  0.28721000  0.14766000  1.0
  C  C420  1  0.23144000  0.32822000  0.11161000  1.0
  C  C421  1  0.19222000  0.35849000  0.10379000  1.0
  C  C422  1  0.22012000  0.36756000  0.07276000  1.0
  C  C423  1  0.14085000  0.38014000  0.12521000  1.0
  C  C424  1  0.13579000  0.41498000  0.11825000  1.0
  C  C425  1  0.95119000  0.42732000  0.11687000  1.0
  C  C426  1  0.84336000  0.42456000  0.09100000  1.0
  C  C427  1  0.66734000  0.43501000  0.08963000  1.0
  C  C428  1  0.60375000  0.44683000  0.11599000  1.0
  C  C429  1  0.71828000  0.45392000  0.14031000  1.0
  C  C430  1  0.89465000  0.44547000  0.14008000  1.0
  C  C431  1  0.12334000  0.36987000  0.15443000  1.0
  C  C432  1  0.04423000  0.39081000  0.17676000  1.0
  N  N1  1  0.00934000  0.04447000  0.50358000  1.0
  N  N2  1  0.03419000  0.00694000  0.55006000  1.0
  N  N3  1  0.11711000  0.95949000  0.51469000  1.0
  N  N4  1  0.07778000  0.99626000  0.46765000  1.0
  N  N5  1  0.86829000  0.24012000  0.78601000  1.0
  N  N6  1  0.99270000  0.19963000  0.74829000  1.0
  N  N7  1  0.99008000  0.24253000  0.70759000  1.0
  N  N8  1  0.86312000  0.28211000  0.74452000  1.0
  N  N9  1  0.31686000  0.96242000  0.99194000  1.0
  N  N10  1  0.41129000  0.01009000  0.95733000  1.0
  N  N11  1  0.66421000  0.03126000  0.99566000  1.0
  N  N12  1  0.55125000  0.98844000  0.03361000  1.0
  N  N13  1  0.29198000  0.74255000  0.20766000  1.0
  N  N14  1  0.25178000  0.78381000  0.25040000  1.0
  N  N15  1  0.37144000  0.74351000  0.28900000  1.0
  N  N16  1  0.43246000  0.70399000  0.24657000  1.0
  N  N17  1  0.88893000  0.26967000  0.21072000  1.0
  N  N18  1  0.81137000  0.22085000  0.24431000  1.0
  N  N19  1  0.95155000  0.25255000  0.29032000  1.0
  N  N20  1  0.02910000  0.30169000  0.25795000  1.0
  N  N21  1  0.63601000  0.52443000  0.99282000  1.0
  N  N22  1  0.57046000  0.48864000  0.03836000  1.0
  N  N23  1  0.64814000  0.43798000  0.00874000  1.0
  N  N24  1  0.69072000  0.47358000  0.96112000  1.0
  N  N25  1  0.07307000  0.73927000  0.72032000  1.0
  N  N26  1  0.23858000  0.70570000  0.76095000  1.0
  N  N27  1  0.21646000  0.75370000  0.79944000  1.0
  N  N28  1  0.00319000  0.78067000  0.76190000  1.0
  N  N29  1  0.20547000  0.44441000  0.50591000  1.0
  N  N30  1  0.23593000  0.47345000  0.45483000  1.0
  N  N31  1  0.09591000  0.52401000  0.47884000  1.0
  N  N32  1  0.04227000  0.49231000  0.52809000  1.0
  O  O1  1  0.41371000  0.87333000  0.73052000  1.0
  O  O2  1  0.81477000  0.15576000  0.60534000  1.0
  O  O3  1  0.37223000  0.96026000  0.84392000  1.0
  O  O4  1  0.91300000  0.83830000  0.42645000  1.0
  O  O5  1  0.23685000  0.13810000  0.15798000  1.0
  O  O6  1  0.36082000  0.13937000  0.41636000  1.0
  O  O7  1  0.65477000  0.83686000  0.05812000  1.0
  O  O8  1  0.24262000  0.59018000  0.07212000  1.0
  O  O9  1  0.01983000  0.55373000  0.32644000  1.0
  O  O10  1  0.86740000  0.01235000  0.84583000  1.0
  O  O11  1  0.65229000  0.34307000  0.51027000  1.0
  O  O12  1  0.63543000  0.63549000  0.52368000  1.0
  O  O13  1  0.14827000  0.70232000  0.91038000  1.0
  O  O14  1  0.34435000  0.37664000  0.00291000  1.0
  O  O15  1  0.11076000  0.31468000  0.44481000  1.0
  O  O16  1  0.65474000  0.47012000  0.16414000  1.0
