# generated using pymatgen
data_H72C121
_symmetry_space_group_name_H-M   'P 1'
_cell_length_a   38.68475555
_cell_length_b   38.68455587
_cell_length_c   38.68455587
_cell_angle_alpha   61.39612085
_cell_angle_beta   74.89296775
_cell_angle_gamma   105.10703225
_symmetry_Int_Tables_number   1
_chemical_formula_structural   H72C121
_chemical_formula_sum   'H288 C484'
_cell_volume   43703.73069486
_cell_formula_units_Z   4
loop_
 _symmetry_equiv_pos_site_id
 _symmetry_equiv_pos_as_xyz
  1  'x, y, z'
loop_
 _atom_site_type_symbol
 _atom_site_label
 _atom_site_symmetry_multiplicity
 _atom_site_fract_x
 _atom_site_fract_y
 _atom_site_fract_z
 _atom_site_occupancy
  C  1  1  0.75834000  0.72393300  0.15738600  1
  C  2  1  0.74157850  0.67708600  0.18392350  1
  C  3  1  0.72566850  0.65065600  0.23071550  1
  C  4  1  0.72884700  0.67340300  0.25052200  1
  C  5  1  0.74365800  0.71975750  0.22630050  1
  C  6  1  0.75696100  0.74379450  0.18013050  1
  C  7  1  0.70651750  0.60281750  0.25745600  1
  C  8  1  0.71696100  0.57870150  0.24177550  1
  C  9  1  0.69685450  0.53210200  0.26787950  1
  C  10  1  0.66574450  0.50656450  0.31175100  1
  C  11  1  0.65597750  0.53080550  0.32760600  1
  C  12  1  0.67504000  0.57728350  0.30106450  1
  C  13  1  0.77691650  0.75074900  0.10950850  1
  C  14  1  0.76561200  0.73532350  0.08553850  1
  C  15  1  0.78535150  0.76140650  0.03891500  1
  C  16  1  0.81697450  0.80502100  0.01319050  1
  C  17  1  0.82754250  0.82069450  0.03726200  1
  C  18  1  0.80885750  0.79414400  0.08372850  1
  C  19  1  0.74512050  0.74178800  0.24750650  1
  C  20  1  0.77760900  0.78360000  0.22669400  1
  C  21  1  0.77797550  0.80685150  0.24565500  1
  C  22  1  0.74622450  0.78875400  0.28677850  1
  C  23  1  0.71446800  0.74630750  0.30875550  1
  C  24  1  0.71388050  0.72339600  0.28931250  1
  C  40  1  0.72414650  0.04741150  0.51504800  1
  C  41  1  0.74091000  0.03763300  0.54513400  1
  C  42  1  0.75681500  0.00674800  0.55565600  1
  C  43  1  0.75363600  0.98376550  0.53608550  1
  C  44  1  0.73882950  0.99317850  0.50454000  1
  C  45  1  0.72552750  0.02604950  0.49380400  1
  C  46  1  0.77596450  0.99915300  0.58434650  1
  C  47  1  0.76552300  0.00439550  0.61890250  1
  C  48  1  0.78562150  0.99838500  0.64540350  1
  C  49  1  0.81673450  0.98563050  0.63982700  1
  C  50  1  0.82650100  0.97954150  0.60581850  1
  C  51  1  0.80743800  0.98701950  0.57840750  1
  C  52  1  0.70557000  0.07671150  0.50680950  1
  C  53  1  0.71687600  0.11198650  0.51093050  1
  C  54  1  0.69713700  0.13887000  0.50458800  1
  C  55  1  0.66550900  0.13296750  0.49260450  1
  C  56  1  0.65494200  0.09833250  0.48749450  1
  C  57  1  0.67362900  0.07055050  0.49535550  1
  C  58  1  0.73736300  0.97050800  0.48397400  1
  C  59  1  0.70487300  0.95883350  0.47465050  1
  C  60  1  0.70452200  0.93954050  0.45173450  1
  C  61  1  0.73627200  0.93016050  0.43808850  1
  C  62  1  0.76799850  0.93987300  0.44883650  1
  C  63  1  0.76860850  0.95995500  0.47111050  1
  C  79  1  0.90067000  0.95682900  0.74795400  1
  C  80  1  0.88036150  0.92674450  0.79480300  1
  C  81  1  0.90072400  0.91622950  0.82123150  1
  C  82  1  0.94327700  0.93580100  0.79848400  1
  C  83  1  0.96540950  0.96734250  0.75212900  1
  C  84  1  0.94327450  0.97806900  0.72809150  1
  C  85  1  0.87962700  0.88754250  0.86907050  1
  C  86  1  0.83983000  0.85298500  0.89318600  1
  C  87  1  0.81934000  0.82648200  0.93978700  1
  C  88  1  0.83766900  0.83206350  0.96532250  1
  C  89  1  0.87776300  0.86607900  0.94108100  1
  C  90  1  0.89769500  0.89349600  0.89460500  1
  C  91  1  0.87960600  0.96505750  0.72114150  1
  C  92  1  0.84021600  0.96095400  0.73656300  1
  C  93  1  0.81967100  0.96728850  0.71048350  1
  C  94  1  0.83756250  0.97928700  0.66686750  1
  C  95  1  0.87730650  0.98439050  0.65119300  1
  C  96  1  0.89722550  0.97653300  0.67773950  1
  C  97  1  0.00864500  0.98791400  0.73009900  1
  C  98  1  0.02964600  0.99723350  0.68828750  1
  C  99  1  0.07185850  0.02012500  0.66503250  1
  C  100  1  0.09488200  0.03378450  0.68312850  1
  C  101  1  0.07441700  0.02308100  0.72558200  1
  C  102  1  0.03205950  0.00080400  0.74846750  1
  C  118  1  0.58180850  0.31450250  0.42448700  1
  C  119  1  0.60211800  0.28796400  0.43426600  1
  C  120  1  0.58175550  0.24117200  0.46515050  1
  C  121  1  0.53920250  0.22136700  0.48813150  1
  C  122  1  0.51706950  0.24558700  0.47872150  1
  C  123  1  0.53920450  0.29175950  0.44585500  1
  C  124  1  0.60285450  0.21443250  0.47273900  1
  C  125  1  0.64265150  0.23011500  0.46749650  1
  C  126  1  0.66314200  0.20400550  0.47351050  1
  C  127  1  0.64481300  0.16014050  0.48625950  1
  C  128  1  0.60471750  0.14428400  0.49234650  1
  C  129  1  0.58478500  0.17082700  0.48486000  1
  C  130  1  0.60287300  0.36238050  0.39518650  1
  C  131  1  0.64226500  0.38634750  0.35990750  1
  C  132  1  0.66281250  0.43297200  0.33303150  1
  C  133  1  0.64491950  0.45869700  0.33892350  1
  C  134  1  0.60517650  0.43462950  0.37356300  1
  C  135  1  0.58525350  0.38816250  0.40133600  1
  C  136  1  0.47383250  0.22438350  0.50138100  1
  C  137  1  0.45283150  0.24520150  0.51304800  1
  C  138  1  0.41062150  0.22624700  0.53236250  1
  C  139  1  0.38759700  0.18512200  0.54173600  1
  C  140  1  0.40806550  0.16314800  0.53195050  1
  C  141  1  0.45042000  0.18258750  0.51192950  1
  C  157  1  0.22414700  0.16775500  0.89470200  1
  C  158  1  0.24090850  0.21460200  0.86816650  1
  C  159  1  0.25682000  0.24103250  0.82137350  1
  C  160  1  0.25364750  0.21828700  0.80156550  1
  C  161  1  0.23883250  0.17193400  0.82578550  1
  C  162  1  0.22552100  0.14789250  0.87195850  1
  C  163  1  0.27597950  0.28887350  0.79463500  1
  C  164  1  0.26552750  0.31298550  0.81031500  1
  C  165  1  0.28562750  0.35958400  0.78420850  1
  C  166  1  0.31673850  0.38512350  0.74033800  1
  C  167  1  0.32651150  0.36088350  0.72448300  1
  C  168  1  0.30745350  0.31440850  0.75102400  1
  C  169  1  0.20556900  0.14094150  0.94257850  1
  C  170  1  0.21687650  0.15636350  0.96655000  1
  C  171  1  0.19712550  0.13028650  0.01317400  1
  C  172  1  0.16550950  0.08667100  0.03889750  1
  C  173  1  0.15494300  0.07099400  0.01482700  1
  C  174  1  0.17363500  0.09754100  0.96836000  1
  C  175  1  0.23737000  0.14990300  0.80457900  1
  C  176  1  0.20488150  0.10809150  0.82538900  1
  C  177  1  0.20452550  0.08483050  0.80644100  1
  C  178  1  0.23627800  0.10293350  0.76531550  1
  C  179  1  0.26801150  0.14540350  0.74330700  1
  C  180  1  0.26862600  0.16828000  0.76278800  1
  C  196  1  0.25833950  0.84428400  0.53703550  1
  C  197  1  0.24158050  0.85406450  0.50694700  1
  C  198  1  0.22567400  0.88494950  0.49642550  1
  C  199  1  0.22884550  0.90792700  0.51600250  1
  C  200  1  0.24365700  0.89851600  0.54754400  1
  C  201  1  0.25696500  0.86565100  0.55827500  1
  C  202  1  0.20651850  0.89253500  0.46774150  1
  C  203  1  0.21696450  0.88730300  0.43317950  1
  C  204  1  0.19685650  0.89330050  0.40668800  1
  C  205  1  0.16574900  0.90606150  0.41226050  1
  C  206  1  0.15597550  0.91213950  0.44627600  1
  C  207  1  0.17504000  0.90466450  0.47368650  1
  C  208  1  0.27691800  0.81498550  0.54526950  1
  C  209  1  0.26560800  0.77970650  0.54115650  1
  C  210  1  0.28535700  0.75283250  0.54748350  1
  C  211  1  0.31697400  0.75872450  0.55948450  1
  C  212  1  0.32754300  0.79336350  0.56459050  1
  C  213  1  0.30886050  0.82114700  0.55672250  1
  C  214  1  0.24511950  0.92118300  0.56811350  1
  C  215  1  0.27760700  0.93285000  0.57744600  1
  C  216  1  0.27796850  0.95216200  0.60034450  1
  C  217  1  0.24621000  0.96152100  0.61400800  1
  C  218  1  0.21446700  0.95177550  0.60329250  1
  C  219  1  0.21386500  0.93171650  0.58099750  1
  C  235  1  0.08181250  0.93486450  0.30413400  1
  C  236  1  0.10211900  0.96494550  0.25728550  1
  C  237  1  0.08175550  0.97546100  0.23085750  1
  C  238  1  0.03920050  0.95586800  0.25360450  1
  C  239  1  0.01707150  0.92433400  0.29995950  1
  C  240  1  0.03920750  0.91361850  0.32399900  1
  C  241  1  0.10285450  0.00414650  0.18301800  1
  C  242  1  0.14264650  0.03870850  0.15890400  1
  C  243  1  0.16314400  0.06520100  0.11230400  1
  C  244  1  0.14481200  0.05962550  0.08676750  1
  C  245  1  0.10471950  0.02561000  0.11100750  1
  C  246  1  0.08478250  0.99819900  0.15748350  1
  C  247  1  0.10287700  0.92662850  0.33094650  1
  C  248  1  0.14226900  0.93074150  0.31552250  1
  C  249  1  0.16281650  0.92441450  0.34159800  1
  C  250  1  0.14492400  0.91241300  0.38521600  1
  C  251  1  0.10517850  0.90730300  0.40089350  1
  C  252  1  0.08526100  0.91517150  0.37434350  1
  C  253  1  0.97383400  0.90374900  0.32199400  1
  C  254  1  0.95283050  0.89443350  0.36380300  1
  C  255  1  0.91061900  0.87153400  0.38705900  1
  C  256  1  0.88759750  0.85788050  0.36895700  1
  C  257  1  0.90806850  0.86855400  0.32652050  1
  C  258  1  0.95042100  0.89085100  0.30362700  1
  C  274  1  0.40067300  0.57718600  0.62761000  1
  C  275  1  0.38036150  0.60372350  0.61783100  1
  C  276  1  0.40072350  0.65051600  0.58694650  1
  C  277  1  0.44327850  0.67032500  0.56398050  1
  C  278  1  0.46541050  0.64610200  0.57338550  1
  C  279  1  0.44327750  0.59992900  0.60624950  1
  C  280  1  0.37962450  0.67725550  0.57936000  1
  C  281  1  0.33983000  0.66157750  0.58459150  1
  C  282  1  0.31933450  0.68768000  0.57859550  1
  C  283  1  0.33766700  0.73154850  0.56583550  1
  C  284  1  0.37776050  0.74740150  0.55975800  1
  C  285  1  0.39769750  0.72086400  0.56723050  1
  C  286  1  0.37960950  0.52930750  0.65691100  1
  C  287  1  0.34021550  0.50533800  0.69218450  1
  C  288  1  0.31967350  0.45871550  0.71906500  1
  C  289  1  0.33756250  0.43299200  0.71316550  1
  C  290  1  0.37730850  0.45706050  0.67853100  1
  C  291  1  0.39722550  0.50352850  0.65075000  1
  C  292  1  0.50864650  0.66730600  0.55072550  1
  C  293  1  0.52965050  0.64650000  0.53904350  1
  C  294  1  0.57186200  0.66545900  0.51972100  1
  C  295  1  0.59488100  0.70658250  0.51035550  1
  C  296  1  0.57441250  0.72856200  0.52012850  1
  C  297  1  0.53205750  0.70909950  0.54018700  1
  C  625  1  0.24063200  0.06392350  0.69249250  1
  C  626  1  0.24065650  0.02358800  0.71917950  1
  C  627  1  0.24182150  0.00329150  0.69772300  1
  C  628  1  0.24184900  0.03000100  0.65735900  1
  C  629  1  0.24270000  0.01636700  0.62926500  1
  C  630  1  0.24456750  0.97620400  0.64154250  1
  C  631  1  0.24476650  0.94997000  0.68252150  1
  C  632  1  0.24315150  0.96312800  0.71083650  1
  C  633  1  0.23934300  0.00915900  0.76066300  1
  C  634  1  0.23774350  0.03587000  0.77542450  1
  C  635  1  0.23792650  0.07703900  0.74899250  1
  C  636  1  0.23979250  0.09117700  0.70696550  1
  C  637  1  0.27576800  0.11228300  0.61020800  1
  C  638  1  0.26211550  0.13896700  0.58349950  1
  C  639  1  0.22036200  0.11750350  0.60379150  1
  C  640  1  0.20671150  0.07714550  0.64413100  1
  C  641  1  0.19331000  0.13061750  0.58935550  1
  C  642  1  0.15183700  0.10230850  0.61606550  1
  C  643  1  0.13709650  0.06132350  0.65723800  1
  C  644  1  0.16498500  0.04904750  0.67137650  1
  C  645  1  0.31749500  0.12676450  0.59657450  1
  C  646  1  0.34538100  0.16879650  0.55641650  1
  C  647  1  0.33063700  0.19522750  0.53017650  1
  C  648  1  0.28916550  0.18045400  0.54333250  1
  C  661  1  0.24124100  0.07083850  0.65104750  1
  C  699  1  0.77576750  0.81453750  0.40796900  1
  C  700  1  0.76211500  0.77417700  0.44830800  1
  C  701  1  0.72036100  0.75271650  0.46860150  1
  C  702  1  0.70671150  0.77940200  0.44188450  1
  C  703  1  0.66498550  0.76492900  0.45552150  1
  C  704  1  0.63709700  0.72289650  0.49567950  1
  C  705  1  0.65183650  0.69646500  0.52192450  1
  C  706  1  0.69330800  0.71122850  0.50876650  1
  C  707  1  0.78916600  0.76105600  0.46274100  1
  C  708  1  0.83063900  0.78936650  0.43603350  1
  C  709  1  0.84538000  0.83034850  0.39485850  1
  C  710  1  0.81749550  0.84262500  0.38071550  1
  C  711  1  0.74184950  0.82775900  0.35960550  1
  C  712  1  0.74181750  0.86809200  0.33291850  1
  C  713  1  0.74065200  0.88838900  0.35437600  1
  C  714  1  0.74062950  0.86168200  0.39473850  1
  C  715  1  0.73933450  0.92855700  0.34125650  1
  C  716  1  0.73772650  0.94172050  0.36956800  1
  C  717  1  0.73792100  0.91548400  0.41054800  1
  C  718  1  0.73978400  0.87531950  0.42282750  1
  C  719  1  0.74269150  0.80050550  0.34513100  1
  C  720  1  0.74457250  0.81465000  0.30309750  1
  C  721  1  0.74476250  0.85582300  0.27665950  1
  C  722  1  0.74315300  0.88253000  0.29142600  1
  C  735  1  0.74124000  0.82084400  0.40104900  1
  C  773  1  0.75834000  0.02774600  0.85357300  1
  C  774  1  0.74157850  0.98089900  0.88011050  1
  C  775  1  0.72566850  0.95446900  0.92690250  1
  C  776  1  0.72884700  0.97721600  0.94670900  1
  C  777  1  0.74365800  0.02357050  0.92248750  1
  C  778  1  0.75696100  0.04760750  0.87631750  1
  C  779  1  0.70651750  0.90663050  0.95364300  1
  C  780  1  0.71696100  0.88251450  0.93796250  1
  C  781  1  0.69685450  0.83591495  0.96406655  1
  C  782  1  0.66574450  0.81037745  0.00793805  1
  C  783  1  0.65597750  0.83461845  0.02379305  1
  C  784  1  0.67504000  0.88109650  0.99725150  1
  C  785  1  0.77691650  0.05456200  0.80569550  1
  C  786  1  0.76561200  0.03913650  0.78172550  1
  C  787  1  0.78535150  0.06521950  0.73510200  1
  C  788  1  0.81697450  0.10883400  0.70937750  1
  C  789  1  0.82754250  0.12450750  0.73344900  1
  C  790  1  0.80885750  0.09795700  0.77991550  1
  C  791  1  0.74512050  0.04560100  0.94369350  1
  C  792  1  0.77760900  0.08741300  0.92288100  1
  C  793  1  0.77797550  0.11066450  0.94184200  1
  C  794  1  0.74622450  0.09256700  0.98296550  1
  C  795  1  0.71446800  0.05012050  0.00494250  1
  C  796  1  0.71388050  0.02720900  0.98549950  1
  C  812  1  0.72414650  0.35122450  0.21123500  1
  C  813  1  0.74091000  0.34144600  0.24132100  1
  C  814  1  0.75681500  0.31056100  0.25184300  1
  C  815  1  0.75363600  0.28757850  0.23227250  1
  C  816  1  0.73882950  0.29699150  0.20072700  1
  C  817  1  0.72552750  0.32986250  0.18999100  1
  C  818  1  0.77596450  0.30296600  0.28053350  1
  C  819  1  0.76552300  0.30820850  0.31508950  1
  C  820  1  0.78562150  0.30219795  0.34159055  1
  C  821  1  0.81673450  0.28944345  0.33601405  1
  C  822  1  0.82650100  0.28335445  0.30200555  1
  C  823  1  0.80743800  0.29083250  0.27459450  1
  C  824  1  0.70557000  0.38052450  0.20299650  1
  C  825  1  0.71687600  0.41579950  0.20711750  1
  C  826  1  0.69713700  0.44268300  0.20077500  1
  C  827  1  0.66550900  0.43678050  0.18879150  1
  C  828  1  0.65494200  0.40214550  0.18368150  1
  C  829  1  0.67362900  0.37436350  0.19154250  1
  C  830  1  0.73736300  0.27432100  0.18016100  1
  C  831  1  0.70487300  0.26264650  0.17083750  1
  C  832  1  0.70452200  0.24335350  0.14792150  1
  C  833  1  0.73627200  0.23397350  0.13427550  1
  C  834  1  0.76799850  0.24368600  0.14502350  1
  C  835  1  0.76860850  0.26376800  0.16729750  1
  C  851  1  0.90067000  0.26064200  0.44414100  1
  C  852  1  0.88036150  0.23055750  0.49099000  1
  C  853  1  0.90072400  0.22004250  0.51741850  1
  C  854  1  0.94327700  0.23961400  0.49467100  1
  C  855  1  0.96540950  0.27115550  0.44831600  1
  C  856  1  0.94327450  0.28188200  0.42427850  1
  C  857  1  0.87962700  0.19135550  0.56525750  1
  C  858  1  0.83983000  0.15679800  0.58937300  1
  C  859  1  0.81934000  0.13029500  0.63597400  1
  C  860  1  0.83766900  0.13587650  0.66150950  1
  C  861  1  0.87776300  0.16989200  0.63726800  1
  C  862  1  0.89769500  0.19730900  0.59079200  1
  C  863  1  0.87960600  0.26887050  0.41732850  1
  C  864  1  0.84021600  0.26476700  0.43275000  1
  C  865  1  0.81967100  0.27110145  0.40667055  1
  C  866  1  0.83756250  0.28309995  0.36305455  1
  C  867  1  0.87730650  0.28820345  0.34738005  1
  C  868  1  0.89722550  0.28034592  0.37392658  1
  C  869  1  0.00864500  0.29172700  0.42628600  1
  C  870  1  0.02964600  0.30104650  0.38447450  1
  C  871  1  0.07185850  0.32393800  0.36121950  1
  C  872  1  0.09488200  0.33759750  0.37931550  1
  C  873  1  0.07441700  0.32689400  0.42176900  1
  C  874  1  0.03205950  0.30461700  0.44465450  1
  C  890  1  0.58180850  0.61831550  0.12067400  1
  C  891  1  0.60211800  0.59177700  0.13045300  1
  C  892  1  0.58175550  0.54498500  0.16133750  1
  C  893  1  0.53920250  0.52518000  0.18431850  1
  C  894  1  0.51706950  0.54940000  0.17490850  1
  C  895  1  0.53920450  0.59557250  0.14204200  1
  C  896  1  0.60285450  0.51824550  0.16892600  1
  C  897  1  0.64265150  0.53392800  0.16368350  1
  C  898  1  0.66314200  0.50781850  0.16969750  1
  C  899  1  0.64481300  0.46395350  0.18244650  1
  C  900  1  0.60471750  0.44809700  0.18853350  1
  C  901  1  0.58478500  0.47464000  0.18104700  1
  C  902  1  0.60287300  0.66619350  0.09137350  1
  C  903  1  0.64226500  0.69016050  0.05609450  1
  C  904  1  0.66281250  0.73678495  0.02921855  1
  C  905  1  0.64491950  0.76250995  0.03511055  1
  C  906  1  0.60517650  0.73844245  0.06975005  1
  C  907  1  0.58525350  0.69197543  0.09752307  1
  C  908  1  0.47383250  0.52819650  0.19756800  1
  C  909  1  0.45283150  0.54901450  0.20923500  1
  C  910  1  0.41062150  0.53006000  0.22854950  1
  C  911  1  0.38759700  0.48893500  0.23792300  1
  C  912  1  0.40806550  0.46696100  0.22813750  1
  C  913  1  0.45042000  0.48640050  0.20811650  1
  C  929  1  0.22414700  0.47156800  0.59088900  1
  C  930  1  0.24090850  0.51841500  0.56435350  1
  C  931  1  0.25682000  0.54484550  0.51756050  1
  C  932  1  0.25364750  0.52210000  0.49775250  1
  C  933  1  0.23883250  0.47574700  0.52197250  1
  C  934  1  0.22552100  0.45170550  0.56814550  1
  C  935  1  0.27597950  0.59268650  0.49082200  1
  C  936  1  0.26552750  0.61679850  0.50650200  1
  C  937  1  0.28562750  0.66339700  0.48039550  1
  C  938  1  0.31673850  0.68893650  0.43652500  1
  C  939  1  0.32651150  0.66469650  0.42067000  1
  C  940  1  0.30745350  0.61822150  0.44721100  1
  C  941  1  0.20556900  0.44475450  0.63876550  1
  C  942  1  0.21687650  0.46017650  0.66273700  1
  C  943  1  0.19712550  0.43409950  0.70936100  1
  C  944  1  0.16550950  0.39048400  0.73508450  1
  C  945  1  0.15494300  0.37480700  0.71101400  1
  C  946  1  0.17363500  0.40135400  0.66454700  1
  C  947  1  0.23737000  0.45371600  0.50076600  1
  C  948  1  0.20488150  0.41190450  0.52157600  1
  C  949  1  0.20452550  0.38864350  0.50262800  1
  C  950  1  0.23627800  0.40674650  0.46150250  1
  C  951  1  0.26801150  0.44921650  0.43949400  1
  C  952  1  0.26862600  0.47209300  0.45897500  1
  C  968  1  0.25833950  0.14809700  0.23322250  1
  C  969  1  0.24158050  0.15787750  0.20313400  1
  C  970  1  0.22567400  0.18876250  0.19261250  1
  C  971  1  0.22884550  0.21174000  0.21218950  1
  C  972  1  0.24365700  0.20232900  0.24373100  1
  C  973  1  0.25696500  0.16946400  0.25446200  1
  C  974  1  0.20651850  0.19634800  0.16392850  1
  C  975  1  0.21696450  0.19111600  0.12936650  1
  C  976  1  0.19685650  0.19711350  0.10287500  1
  C  977  1  0.16574900  0.20987450  0.10844750  1
  C  978  1  0.15597550  0.21595250  0.14246300  1
  C  979  1  0.17504000  0.20847750  0.16987350  1
  C  980  1  0.27691800  0.11879850  0.24145650  1
  C  981  1  0.26560800  0.08351950  0.23734350  1
  C  982  1  0.28535700  0.05664550  0.24367050  1
  C  983  1  0.31697400  0.06253750  0.25567150  1
  C  984  1  0.32754300  0.09717650  0.26077750  1
  C  985  1  0.30886050  0.12496000  0.25290950  1
  C  986  1  0.24511950  0.22499600  0.26430050  1
  C  987  1  0.27760700  0.23666300  0.27363300  1
  C  988  1  0.27796850  0.25597500  0.29653150  1
  C  989  1  0.24621000  0.26533400  0.31019500  1
  C  990  1  0.21446700  0.25558850  0.29947950  1
  C  991  1  0.21386500  0.23552950  0.27718450  1
  C  1007  1  0.08181250  0.23867745  0.00032105  1
  C  1008  1  0.10211900  0.26875850  0.95347250  1
  C  1009  1  0.08175550  0.27927400  0.92704450  1
  C  1010  1  0.03920050  0.25968100  0.94979150  1
  C  1011  1  0.01707150  0.22814700  0.99614650  1
  C  1012  1  0.03920750  0.21743145  0.02018605  1
  C  1013  1  0.10285450  0.30795950  0.87920500  1
  C  1014  1  0.14264650  0.34252150  0.85509100  1
  C  1015  1  0.16314400  0.36901400  0.80849100  1
  C  1016  1  0.14481200  0.36343850  0.78295450  1
  C  1017  1  0.10471950  0.32942300  0.80719450  1
  C  1018  1  0.08478250  0.30201200  0.85367050  1
  C  1019  1  0.10287700  0.23044145  0.02713355  1
  C  1020  1  0.14226900  0.23455445  0.01170955  1
  C  1021  1  0.16281650  0.22822745  0.03778505  1
  C  1022  1  0.14492400  0.21622600  0.08140300  1
  C  1023  1  0.10517850  0.21111592  0.09708057  1
  C  1024  1  0.08526100  0.21898445  0.07053055  1
  C  1025  1  0.97383400  0.20756200  0.01818100  1
  C  1026  1  0.95283050  0.19824645  0.05999005  1
  C  1027  1  0.91061900  0.17534695  0.08324605  1
  C  1028  1  0.88759750  0.16169350  0.06514400  1
  C  1029  1  0.90806850  0.17236700  0.02270750  1
  C  1030  1  0.95042100  0.19466400  0.99981400  1
  C  1046  1  0.40067300  0.88099895  0.32379705  1
  C  1047  1  0.38036150  0.90753650  0.31401800  1
  C  1048  1  0.40072350  0.95432900  0.28313350  1
  C  1049  1  0.44327850  0.97413800  0.26016750  1
  C  1050  1  0.46541050  0.94991500  0.26957250  1
  C  1051  1  0.44327750  0.90374195  0.30243655  1
  C  1052  1  0.37962450  0.98106850  0.27554700  1
  C  1053  1  0.33983000  0.96539050  0.28077850  1
  C  1054  1  0.31933450  0.99149300  0.27478250  1
  C  1055  1  0.33766700  0.03536150  0.26202250  1
  C  1056  1  0.37776050  0.05121450  0.25594500  1
  C  1057  1  0.39769750  0.02467700  0.26341750  1
  C  1058  1  0.37960950  0.83312045  0.35309805  1
  C  1059  1  0.34021550  0.80915095  0.38837155  1
  C  1060  1  0.31967350  0.76252845  0.41525205  1
  C  1061  1  0.33756250  0.73680500  0.40935250  1
  C  1062  1  0.37730850  0.76087342  0.37471807  1
  C  1063  1  0.39722550  0.80734145  0.34693705  1
  C  1064  1  0.50864650  0.97111900  0.24691250  1
  C  1065  1  0.52965050  0.95031295  0.23523055  1
  C  1066  1  0.57186200  0.96927195  0.21590805  1
  C  1067  1  0.59488100  0.01039550  0.20654250  1
  C  1068  1  0.57441250  0.03237500  0.21631550  1
  C  1069  1  0.53205750  0.01291250  0.23637400  1
  C  1397  1  0.24063200  0.36773650  0.38867950  1
  C  1398  1  0.24065650  0.32740100  0.41536650  1
  C  1399  1  0.24182150  0.30710450  0.39391000  1
  C  1400  1  0.24184900  0.33381400  0.35354600  1
  C  1401  1  0.24270000  0.32018000  0.32545200  1
  C  1402  1  0.24456750  0.28001700  0.33772950  1
  C  1403  1  0.24476650  0.25378300  0.37870850  1
  C  1404  1  0.24315150  0.26694100  0.40702350  1
  C  1405  1  0.23934300  0.31297200  0.45685000  1
  C  1406  1  0.23774350  0.33968300  0.47161150  1
  C  1407  1  0.23792650  0.38085200  0.44517950  1
  C  1408  1  0.23979250  0.39499000  0.40315250  1
  C  1409  1  0.27576800  0.41609600  0.30639500  1
  C  1410  1  0.26211550  0.44278000  0.27968650  1
  C  1411  1  0.22036200  0.42131650  0.29997850  1
  C  1412  1  0.20671150  0.38095850  0.34031800  1
  C  1413  1  0.19331000  0.43443050  0.28554250  1
  C  1414  1  0.15183700  0.40612150  0.31225250  1
  C  1415  1  0.13709650  0.36513650  0.35342500  1
  C  1416  1  0.16498500  0.35286050  0.36756350  1
  C  1417  1  0.31749500  0.43057750  0.29276150  1
  C  1418  1  0.34538100  0.47260950  0.25260350  1
  C  1419  1  0.33063700  0.49904050  0.22636350  1
  C  1420  1  0.28916550  0.48426700  0.23951950  1
  C  1433  1  0.24124100  0.37465150  0.34723450  1
  C  1471  1  0.77576750  0.11835050  0.10415600  1
  C  1472  1  0.76211500  0.07798995  0.14449505  1
  C  1473  1  0.72036100  0.05652945  0.16478855  1
  C  1474  1  0.70671150  0.08321500  0.13807150  1
  C  1475  1  0.66498550  0.06874200  0.15170850  1
  C  1476  1  0.63709700  0.02670945  0.19186655  1
  C  1477  1  0.65183650  0.00027795  0.21811155  1
  C  1478  1  0.69330800  0.01504145  0.20495355  1
  C  1479  1  0.78916600  0.06486895  0.15892805  1
  C  1480  1  0.83063900  0.09317945  0.13222055  1
  C  1481  1  0.84538000  0.13416145  0.09104555  1
  C  1482  1  0.81749550  0.14643800  0.07690250  1
  C  1483  1  0.74184950  0.13157200  0.05579250  1
  C  1484  1  0.74181750  0.17190500  0.02910550  1
  C  1485  1  0.74065200  0.19220200  0.05056300  1
  C  1486  1  0.74062950  0.16549500  0.09092550  1
  C  1487  1  0.73933450  0.23237000  0.03744350  1
  C  1488  1  0.73772650  0.24553350  0.06575500  1
  C  1489  1  0.73792100  0.21929700  0.10673500  1
  C  1490  1  0.73978400  0.17913250  0.11901450  1
  C  1491  1  0.74269150  0.10431850  0.04131800  1
  C  1492  1  0.74457250  0.11846300  0.99928450  1
  C  1493  1  0.74476250  0.15963600  0.97284650  1
  C  1494  1  0.74315300  0.18634300  0.98761300  1
  C  1507  1  0.74124000  0.12465700  0.09723600  1
  H  25  1  0.77649900  0.74739950  0.02407650  1
  H  26  1  0.74248450  0.70464500  0.10173250  1
  H  27  1  0.84920200  0.85213500  0.02135500  1
  H  28  1  0.81973550  0.80724300  0.09840050  1
  H  29  1  0.80139400  0.79803800  0.19696100  1
  H  30  1  0.80150200  0.83753500  0.22880000  1
  H  31  1  0.68924300  0.69384050  0.30525150  1
  H  32  1  0.69043350  0.73275800  0.33799050  1
  H  33  1  0.66489750  0.59217700  0.31432750  1
  H  34  1  0.63474800  0.51502100  0.35922500  1
  H  35  1  0.70512850  0.51713950  0.25376300  1
  H  36  1  0.73977050  0.59476300  0.21092850  1
  H  37  1  0.74091550  0.66170500  0.16867650  1
  H  38  1  0.76551500  0.77696350  0.16261650  1
  H  39  1  0.72074200  0.65586200  0.28359900  1
  H  64  1  0.70598400  0.16255800  0.50974700  1
  H  65  1  0.74000350  0.11891800  0.51848250  1
  H  66  1  0.63328200  0.09257900  0.47771400  1
  H  67  1  0.66275300  0.04500350  0.49313250  1
  H  68  1  0.68109800  0.96479650  0.48398250  1
  H  69  1  0.68100100  0.93287550  0.44456850  1
  H  70  1  0.79323500  0.96862650  0.47605550  1
  H  71  1  0.79205700  0.93472250  0.43831150  1
  H  72  1  0.81758050  0.98389750  0.55337000  1
  H  73  1  0.84773050  0.96915100  0.60037450  1
  H  74  1  0.77736000  0.00425000  0.66862700  1
  H  75  1  0.74271600  0.01244050  0.62564650  1
  H  76  1  0.74157050  0.05354100  0.55985250  1
  H  77  1  0.71697500  0.03500750  0.46919050  1
  H  78  1  0.76173900  0.95879200  0.54552200  1
  H  103  1  0.79083400  0.96215800  0.72448100  1
  H  104  1  0.82573400  0.95340700  0.76724200  1
  H  105  1  0.89284000  0.99417200  0.61975100  1
  H  106  1  0.92498950  0.97873350  0.66464700  1
  H  107  1  0.01435200  0.98788650  0.67385050  1
  H  108  1  0.08568650  0.02729400  0.63434350  1
  H  109  1  0.01844250  0.99582000  0.77805950  1
  H  110  1  0.09009100  0.03356050  0.73914150  1
  H  111  1  0.92585850  0.91852250  0.87971100  1
  H  112  1  0.89359900  0.87152050  0.95686550  1
  H  113  1  0.79025600  0.80325350  0.95474750  1
  H  114  1  0.82504950  0.84623100  0.87712350  1
  H  115  1  0.84973400  0.91202550  0.81018350  1
  H  116  1  0.95892850  0.00268150  0.69492500  1
  H  117  1  0.95881500  0.92637050  0.81602450  1
  H  142  1  0.69165050  0.44781250  0.30932900  1
  H  143  1  0.65675100  0.37015350  0.35297850  1
  H  144  1  0.58964150  0.45053700  0.37931250  1
  H  145  1  0.55749000  0.37349050  0.42689750  1
  H  146  1  0.46812500  0.27492700  0.50711100  1
  H  147  1  0.39678950  0.24309200  0.53904950  1
  H  148  1  0.46403650  0.16662150  0.50327800  1
  H  149  1  0.39238350  0.13388650  0.53719500  1
  H  150  1  0.55662100  0.15755700  0.48799800  1
  H  151  1  0.58888250  0.11266350  0.50273600  1
  H  152  1  0.69222650  0.21812900  0.46764850  1
  H  153  1  0.65743550  0.26096100  0.45946550  1
  H  154  1  0.63274500  0.30321100  0.41835600  1
  H  155  1  0.52354950  0.30927100  0.43689150  1
  H  156  1  0.52366550  0.18828900  0.51310350  1
  H  181  1  0.20598850  0.14428450  0.02801500  1
  H  182  1  0.24000250  0.18704350  0.95035600  1
  H  183  1  0.13328150  0.03955250  0.03073400  1
  H  184  1  0.16274450  0.08444900  0.95368650  1
  H  185  1  0.18109500  0.09365700  0.85511700  1
  H  186  1  0.18100100  0.05414850  0.82329150  1
  H  187  1  0.29324350  0.19786000  0.74683250  1
  H  188  1  0.29207000  0.15893800  0.71410000  1
  H  189  1  0.31759500  0.29951450  0.73776050  1
  H  190  1  0.34774050  0.37667050  0.69286300  1
  H  191  1  0.27734850  0.37454850  0.79832300  1
  H  192  1  0.24271150  0.29692300  0.84115750  1
  H  193  1  0.24157350  0.22998300  0.88341150  1
  H  194  1  0.21696600  0.11472600  0.88947000  1
  H  195  1  0.26175100  0.23582850  0.76848850  1
  H  220  1  0.27649300  0.72912700  0.54235100  1
  H  221  1  0.24248050  0.77277450  0.53360400  1
  H  222  1  0.34920050  0.79911500  0.57437450  1
  H  223  1  0.31973750  0.84669700  0.55894450  1
  H  224  1  0.30139250  0.92690750  0.56809200  1
  H  225  1  0.30149000  0.95882450  0.60751050  1
  H  226  1  0.18925350  0.92307050  0.57602100  1
  H  227  1  0.19042900  0.95697300  0.61377500  1
  H  228  1  0.16490000  0.90778750  0.49872150  1
  H  229  1  0.13475100  0.92253700  0.45171700  1
  H  230  1  0.20513450  0.88746200  0.38344750  1
  H  231  1  0.23977500  0.87926450  0.42643150  1
  H  232  1  0.24091600  0.83815450  0.49223050  1
  H  233  1  0.26551600  0.85668900  0.58289000  1
  H  234  1  0.22074450  0.93290200  0.50656350  1
  H  259  1  0.19165450  0.92954750  0.32760000  1
  H  260  1  0.15675300  0.93829400  0.28484200  1
  H  261  1  0.08964400  0.89751850  0.43233550  1
  H  262  1  0.05749100  0.91294900  0.38744300  1
  H  263  1  0.96812150  0.90378050  0.37824100  1
  H  264  1  0.89678850  0.86438350  0.41774000  1
  H  265  1  0.96404400  0.89585850  0.27402250  1
  H  266  1  0.89238650  0.85812200  0.31293850  1
  H  267  1  0.05662550  0.97316300  0.17237650  1
  H  268  1  0.08888350  0.02016950  0.09522100  1
  H  269  1  0.19222050  0.08844050  0.09734300  1
  H  270  1  0.15743100  0.04545800  0.17496600  1
  H  271  1  0.13274700  0.97966700  0.24190500  1
  H  272  1  0.02355450  0.88899750  0.35716500  1
  H  273  1  0.02366350  0.96530800  0.23606750  1
  H  298  1  0.29082650  0.44387450  0.74275300  1
  H  299  1  0.32572750  0.52153350  0.69911500  1
  H  300  1  0.39284350  0.44115450  0.67277800  1
  H  301  1  0.42499650  0.51820150  0.62520200  1
  H  302  1  0.51435850  0.61676650  0.54499300  1
  H  303  1  0.58569200  0.64860250  0.51305850  1
  H  304  1  0.51843400  0.72506000  0.54883900  1
  H  305  1  0.59009600  0.75780250  0.51491750  1
  H  306  1  0.42585600  0.73412850  0.56410850  1
  H  307  1  0.39359800  0.77902500  0.54935800  1
  H  308  1  0.29025850  0.67356550  0.58443200  1
  H  309  1  0.32504650  0.63072850  0.59262900  1
  H  310  1  0.34973450  0.58847650  0.63373500  1
  H  311  1  0.45893050  0.58241600  0.61520950  1
  H  312  1  0.45881350  0.70339700  0.53899950  1
  H  649  1  0.35012100  0.22545750  0.50080150  1
  H  650  1  0.27907500  0.19990100  0.52397700  1
  H  651  1  0.20339700  0.16006800  0.55982500  1
  H  652  1  0.13235050  0.11219500  0.60532150  1
  H  653  1  0.15521300  0.01949500  0.70071500  1
  H  654  1  0.32726850  0.10720650  0.61636200  1
  H  655  1  0.24291350  0.03614550  0.59971300  1
  H  656  1  0.24562350  0.92059550  0.69241200  1
  H  657  1  0.24324750  0.94377700  0.74027950  1
  H  658  1  0.23956650  0.12051050  0.68740300  1
  H  659  1  0.23926250  0.97962900  0.78010650  1
  H  660  1  0.23688750  0.02512900  0.80565350  1
  H  723  1  0.74562950  0.86656950  0.24642600  1
  H  724  1  0.74323650  0.91206200  0.27197850  1
  H  725  1  0.73924900  0.94791550  0.31180650  1
  H  726  1  0.73687700  0.97109950  0.35967250  1
  H  727  1  0.73957000  0.85554000  0.45238300  1
  H  728  1  0.74293400  0.77118300  0.36468700  1
  H  729  1  0.65521550  0.78448450  0.43572800  1
  H  730  1  0.63234950  0.66623350  0.55129700  1
  H  731  1  0.70339550  0.69178450  0.52812800  1
  H  732  1  0.82726850  0.87218000  0.35137850  1
  H  733  1  0.77907700  0.73160700  0.49227300  1
  H  734  1  0.85012400  0.77947300  0.44677200  1
  H  797  1  0.77649900  0.05121250  0.72026350  1
  H  798  1  0.74248450  0.00845800  0.79791950  1
  H  799  1  0.84920200  0.15594800  0.71754200  1
  H  800  1  0.81973550  0.11105600  0.79458750  1
  H  801  1  0.80139400  0.10185100  0.89314800  1
  H  802  1  0.80150200  0.14134800  0.92498700  1
  H  803  1  0.68924300  0.99765350  0.00143850  1
  H  804  1  0.69043350  0.03657100  0.03417750  1
  H  805  1  0.66489750  0.89599000  0.01051450  1
  H  806  1  0.63474800  0.81883395  0.05541205  1
  H  807  1  0.70512850  0.82095245  0.94995005  1
  H  808  1  0.73977050  0.89857600  0.90711550  1
  H  809  1  0.74091550  0.96551800  0.86486350  1
  H  810  1  0.76551500  0.08077650  0.85880350  1
  H  811  1  0.72074200  0.95967500  0.97978600  1
  H  836  1  0.70598400  0.46637100  0.20593400  1
  H  837  1  0.74000350  0.42273100  0.21466950  1
  H  838  1  0.63328200  0.39639200  0.17390100  1
  H  839  1  0.66275300  0.34881650  0.18931950  1
  H  840  1  0.68109800  0.26860950  0.18016950  1
  H  841  1  0.68100100  0.23668850  0.14075550  1
  H  842  1  0.79323500  0.27243950  0.17224250  1
  H  843  1  0.79205700  0.23853550  0.13449850  1
  H  844  1  0.81758050  0.28771050  0.24955700  1
  H  845  1  0.84773050  0.27296395  0.29656155  1
  H  846  1  0.77736000  0.30806295  0.36481405  1
  H  847  1  0.74271600  0.31625350  0.32183350  1
  H  848  1  0.74157050  0.35735400  0.25603950  1
  H  849  1  0.71697500  0.33882050  0.16537750  1
  H  850  1  0.76173900  0.26260500  0.24170900  1
  H  875  1  0.79083400  0.26597095  0.42066805  1
  H  876  1  0.82573400  0.25722000  0.46342900  1
  H  877  1  0.89284000  0.29798495  0.31593805  1
  H  878  1  0.92498950  0.28254650  0.36083400  1
  H  879  1  0.01435200  0.29169950  0.37003750  1
  H  880  1  0.08568650  0.33110700  0.33053050  1
  H  881  1  0.01844250  0.29963300  0.47424650  1
  H  882  1  0.09009100  0.33737350  0.43532850  1
  H  883  1  0.92585850  0.22233550  0.57589800  1
  H  884  1  0.89359900  0.17533350  0.65305250  1
  H  885  1  0.79025600  0.10706650  0.65093450  1
  H  886  1  0.82504950  0.15004400  0.57331050  1
  H  887  1  0.84973400  0.21583850  0.50637050  1
  H  888  1  0.95892850  0.30649450  0.39111200  1
  H  889  1  0.95881500  0.23018350  0.51221150  1
  H  914  1  0.69165050  0.75162545  0.00551605  1
  H  915  1  0.65675100  0.67396650  0.04916550  1
  H  916  1  0.58964150  0.75434995  0.07549955  1
  H  917  1  0.55749000  0.67730350  0.12308450  1
  H  918  1  0.46812500  0.57874000  0.20329800  1
  H  919  1  0.39678950  0.54690500  0.23523650  1
  H  920  1  0.46403650  0.47043450  0.19946500  1
  H  921  1  0.39238350  0.43769950  0.23338200  1
  H  922  1  0.55662100  0.46137000  0.18418500  1
  H  923  1  0.58888250  0.41647650  0.19892300  1
  H  924  1  0.69222650  0.52194200  0.16383550  1
  H  925  1  0.65743550  0.56477400  0.15565250  1
  H  926  1  0.63274500  0.60702400  0.11454300  1
  H  927  1  0.52354950  0.61308400  0.13307850  1
  H  928  1  0.52366550  0.49210200  0.20929050  1
  H  953  1  0.20598850  0.44809750  0.72420200  1
  H  954  1  0.24000250  0.49085650  0.64654300  1
  H  955  1  0.13328150  0.34336550  0.72692100  1
  H  956  1  0.16274450  0.38826200  0.64987350  1
  H  957  1  0.18109500  0.39747000  0.55130400  1
  H  958  1  0.18100100  0.35796150  0.51947850  1
  H  959  1  0.29324350  0.50167300  0.44301950  1
  H  960  1  0.29207000  0.46275100  0.41028700  1
  H  961  1  0.31759500  0.60332750  0.43394750  1
  H  962  1  0.34774050  0.68048350  0.38905000  1
  H  963  1  0.27734850  0.67836150  0.49451000  1
  H  964  1  0.24271150  0.60073600  0.53734450  1
  H  965  1  0.24157350  0.53379600  0.57959850  1
  H  966  1  0.21696600  0.41853900  0.58565700  1
  H  967  1  0.26175100  0.53964150  0.46467550  1
  H  992  1  0.27649300  0.03294000  0.23853800  1
  H  993  1  0.24248050  0.07658750  0.22979100  1
  H  994  1  0.34920050  0.10292800  0.27056150  1
  H  995  1  0.31973750  0.15051000  0.25513150  1
  H  996  1  0.30139250  0.23072050  0.26427900  1
  H  997  1  0.30149000  0.26263750  0.30369750  1
  H  998  1  0.18925350  0.22688350  0.27220800  1
  H  999  1  0.19042900  0.26078600  0.30996200  1
  H  1000  1  0.16490000  0.21160050  0.19490850  1
  H  1001  1  0.13475100  0.22635000  0.14790400  1
  H  1002  1  0.20513450  0.19127500  0.07963450  1
  H  1003  1  0.23977500  0.18307750  0.12261850  1
  H  1004  1  0.24091600  0.14196750  0.18841750  1
  H  1005  1  0.26551600  0.16050200  0.27907700  1
  H  1006  1  0.22074450  0.23671500  0.20275050  1
  H  1031  1  0.19165450  0.23336042  0.02378708  1
  H  1032  1  0.15675300  0.24210695  0.98102905  1
  H  1033  1  0.08964400  0.20133150  0.12852250  1
  H  1034  1  0.05749100  0.21676195  0.08363005  1
  H  1035  1  0.96812150  0.20759345  0.07442805  1
  H  1036  1  0.89678850  0.16819645  0.11392705  1
  H  1037  1  0.96404400  0.19967150  0.97020950  1
  H  1038  1  0.89238650  0.16193500  0.00912550  1
  H  1039  1  0.05662550  0.27697600  0.86856350  1
  H  1040  1  0.08888350  0.32398250  0.79140800  1
  H  1041  1  0.19222050  0.39225350  0.79353000  1
  H  1042  1  0.15743100  0.34927100  0.87115300  1
  H  1043  1  0.13274700  0.28348000  0.93809200  1
  H  1044  1  0.02355450  0.19281045  0.05335205  1
  H  1045  1  0.02366350  0.26912100  0.93225450  1
  H  1070  1  0.29082650  0.74768743  0.43894007  1
  H  1071  1  0.32572750  0.82534645  0.39530205  1
  H  1072  1  0.39284350  0.74496750  0.36896500  1
  H  1073  1  0.42499650  0.82201445  0.32138905  1
  H  1074  1  0.51435850  0.92057945  0.24118005  1
  H  1075  1  0.58569200  0.95241545  0.20924555  1
  H  1076  1  0.51843400  0.02887300  0.24502600  1
  H  1077  1  0.59009600  0.06161550  0.21110450  1
  H  1078  1  0.42585600  0.03794150  0.26029550  1
  H  1079  1  0.39359800  0.08283800  0.24554500  1
  H  1080  1  0.29025850  0.97737850  0.28061900  1
  H  1081  1  0.32504650  0.93454150  0.28881600  1
  H  1082  1  0.34973450  0.89228950  0.32992200  1
  H  1083  1  0.45893050  0.88622895  0.31139655  1
  H  1084  1  0.45881350  0.00721000  0.23518650  1
  H  1421  1  0.35012100  0.52927050  0.19698850  1
  H  1422  1  0.27907500  0.50371393  0.22016408  1
  H  1423  1  0.20339700  0.46388092  0.25601208  1
  H  1424  1  0.13235050  0.41600800  0.30150850  1
  H  1425  1  0.15521300  0.32330800  0.39690200  1
  H  1426  1  0.32726850  0.41101950  0.31254900  1
  H  1427  1  0.24291350  0.33995850  0.29590000  1
  H  1428  1  0.24562350  0.22440850  0.38859900  1
  H  1429  1  0.24324750  0.24759000  0.43646650  1
  H  1430  1  0.23956650  0.42432350  0.38359000  1
  H  1431  1  0.23926250  0.28344200  0.47629350  1
  H  1432  1  0.23688750  0.32894200  0.50184050  1
  H  1495  1  0.74562950  0.17038250  0.94261300  1
  H  1496  1  0.74323650  0.21587500  0.96816550  1
  H  1497  1  0.73924900  0.25172850  0.00799350  1
  H  1498  1  0.73687700  0.27491250  0.05585950  1
  H  1499  1  0.73957000  0.15935300  0.14857000  1
  H  1500  1  0.74293400  0.07499600  0.06087400  1
  H  1501  1  0.65521550  0.08829750  0.13191500  1
  H  1502  1  0.63234950  0.97004645  0.24748405  1
  H  1503  1  0.70339550  0.99559745  0.22431505  1
  H  1504  1  0.82726850  0.17599300  0.04756550  1
  H  1505  1  0.77907700  0.03541995  0.18846005  1
  H  1506  1  0.85012400  0.08328595  0.14295905  1
