# generated using pymatgen
data_H34C39N10
_symmetry_space_group_name_H-M   'P 1'
_cell_length_a   32.47290000
_cell_length_b   62.37060000
_cell_length_c   62.37060000
_cell_angle_alpha   90.00000000
_cell_angle_beta   89.99980000
_cell_angle_gamma   90.00000000
_symmetry_Int_Tables_number   1
_chemical_formula_structural   H34C39N10
_chemical_formula_sum   'H544 C624 N160'
_cell_volume   126322.56020466
_cell_formula_units_Z   16
loop_
 _symmetry_equiv_pos_site_id
 _symmetry_equiv_pos_as_xyz
  1  'x, y, z'
loop_
 _atom_site_type_symbol
 _atom_site_label
 _atom_site_symmetry_multiplicity
 _atom_site_fract_x
 _atom_site_fract_y
 _atom_site_fract_z
 _atom_site_occupancy
  H  25  1  0.85808000  0.11482600  0.32104700  1
  H  26  1  0.92245700  0.12103500  0.33826700  1
  H  27  1  0.07500500  0.12432400  0.33620500  1
  H  28  1  0.13838300  0.12082800  0.31724400  1
  H  29  1  0.07664000  0.09125800  0.26604000  1
  H  30  1  0.91898300  0.08725300  0.26847600  1
  H  31  1  0.00493300  0.06066200  0.30729500  1
  H  32  1  0.01248400  0.01093600  0.26191000  1
  H  33  1  0.00410200  0.03624600  0.23355900  1
  H  34  1  0.99510800  0.13837500  0.27946600  1
  H  35  1  0.99054100  0.11073900  0.20702200  1
  H  36  1  0.98853900  0.14856300  0.21299900  1
  H  39  1  0.99740500  0.13124900  0.32773600  1
  H  40  1  0.00035200  0.10539200  0.33941800  1
  H  42  1  0.02287400  0.07603100  0.22456400  1
  H  43  1  0.96846400  0.07425800  0.22610300  1
  H  45  1  0.98823500  0.17423900  0.26742100  1
  H  46  1  0.96627200  0.17769900  0.24198100  1
  H  48  1  0.01544700  0.02464200  0.32042200  1
  H  49  1  0.04600300  0.01037200  0.30194800  1
  H  51  1  0.16351600  0.11929000  0.27421100  1
  H  52  1  0.14828400  0.09495000  0.26286400  1
  H  54  1  0.83252300  0.11240800  0.27641200  1
  H  55  1  0.84645500  0.08671500  0.26794400  1
  H  80  1  0.85812300  0.80902700  0.60278200  1
  H  81  1  0.92251200  0.80281600  0.58557500  1
  H  82  1  0.07506200  0.79954000  0.58765700  1
  H  83  1  0.13843100  0.80304500  0.60662400  1
  H  84  1  0.07664600  0.83259200  0.65782600  1
  H  85  1  0.91899200  0.83659300  0.65536800  1
  H  86  1  0.00494400  0.86318500  0.61656800  1
  H  87  1  0.01246000  0.91290700  0.66195900  1
  H  88  1  0.00408300  0.88759300  0.69030800  1
  H  89  1  0.99513900  0.78546900  0.64438500  1
  H  90  1  0.99056300  0.81309100  0.71683400  1
  H  91  1  0.98857300  0.77526900  0.71085100  1
  H  94  1  0.99745200  0.79260200  0.59611600  1
  H  95  1  0.00040500  0.81846200  0.58444000  1
  H  97  1  0.02288000  0.84780900  0.69929600  1
  H  98  1  0.96847000  0.84957300  0.69776000  1
  H  100  1  0.98825600  0.74960500  0.65642300  1
  H  101  1  0.96630200  0.74613800  0.68186400  1
  H  103  1  0.01545800  0.89920700  0.60344800  1
  H  104  1  0.04599400  0.91348000  0.62192900  1
  H  106  1  0.16353900  0.80457600  0.64966300  1
  H  107  1  0.14829100  0.82891100  0.66101100  1
  H  109  1  0.83253200  0.81144300  0.64741700  1
  H  110  1  0.84646100  0.83713600  0.65588400  1
  H  135  1  0.85812900  0.60279500  0.11484400  1
  H  136  1  0.92251200  0.58557700  0.12104000  1
  H  137  1  0.07506300  0.58764700  0.12430800  1
  H  138  1  0.13843300  0.60661300  0.12080500  1
  H  139  1  0.07665700  0.65781600  0.09125300  1
  H  140  1  0.91900800  0.65536900  0.08726300  1
  H  141  1  0.00495300  0.61655300  0.06065900  1
  H  142  1  0.01244500  0.66193800  0.01093000  1
  H  143  1  0.00407100  0.69029000  0.03624200  1
  H  144  1  0.99515400  0.64438000  0.13837300  1
  H  145  1  0.99054400  0.71682600  0.11073800  1
  H  146  1  0.98854900  0.71084800  0.14856200  1
  H  149  1  0.99746100  0.59611400  0.13124600  1
  H  150  1  0.00040500  0.58442900  0.10539000  1
  H  152  1  0.02288100  0.69928600  0.07602600  1
  H  153  1  0.96847300  0.69774400  0.07426000  1
  H  155  1  0.98827200  0.65642400  0.17423600  1
  H  156  1  0.96627800  0.68185800  0.17769400  1
  H  158  1  0.01544000  0.60342800  0.02463600  1
  H  159  1  0.04597200  0.62190300  0.01035500  1
  H  161  1  0.16357000  0.64963300  0.11926600  1
  H  162  1  0.14830000  0.66100200  0.09494300  1
  H  164  1  0.83254100  0.64740600  0.11243700  1
  H  165  1  0.84648200  0.65591000  0.08675700  1
  H  190  1  0.85811100  0.32106500  0.80904300  1
  H  191  1  0.92250300  0.33827000  0.80282400  1
  H  192  1  0.07506100  0.33618900  0.79954300  1
  H  193  1  0.13842800  0.31722500  0.80305100  1
  H  194  1  0.07664800  0.26602800  0.83261200  1
  H  195  1  0.91899500  0.26847900  0.83661000  1
  H  196  1  0.00492800  0.30729100  0.86319300  1
  H  197  1  0.01242100  0.26191200  0.91292800  1
  H  198  1  0.00404600  0.23355700  0.88762000  1
  H  199  1  0.99516300  0.27945400  0.78548200  1
  H  200  1  0.99056300  0.20701100  0.81312500  1
  H  201  1  0.98858300  0.21298700  0.77529900  1
  H  204  1  0.99746700  0.32772300  0.79260400  1
  H  205  1  0.00038300  0.33941000  0.81845900  1
  H  207  1  0.02286700  0.22455800  0.84784000  1
  H  208  1  0.96845800  0.22609800  0.84959700  1
  H  210  1  0.98830200  0.26740600  0.74961900  1
  H  211  1  0.96631500  0.24197100  0.74616400  1
  H  213  1  0.01542100  0.32042200  0.89921400  1
  H  214  1  0.04597700  0.30194700  0.91348300  1
  H  216  1  0.16354200  0.27420100  0.80458700  1
  H  217  1  0.14829500  0.26284000  0.82891900  1
  H  219  1  0.83249500  0.27643000  0.81148300  1
  H  220  1  0.84646700  0.26797400  0.83717500  1
  H  245  1  0.14015800  0.80134000  0.31330400  1
  H  246  1  0.07641900  0.79177300  0.32962300  1
  H  247  1  0.92377800  0.79093200  0.33004200  1
  H  248  1  0.85936400  0.79964700  0.31390900  1
  H  249  1  0.91950300  0.83940000  0.26953200  1
  H  250  1  0.07770700  0.84100700  0.26968300  1
  H  251  1  0.99750700  0.85793100  0.31574600  1
  H  252  1  0.98108400  0.91720900  0.28487600  1
  H  253  1  0.98751700  0.90018300  0.25086500  1
  H  254  1  0.99869600  0.78979500  0.26899700  1
  H  255  1  0.00080600  0.83502000  0.20593500  1
  H  256  1  0.00115000  0.79689000  0.20203900  1
  H  259  1  0.00025700  0.78507300  0.31841100  1
  H  260  1  0.99973700  0.80752000  0.33583400  1
  H  262  1  0.96985000  0.86402100  0.23242200  1
  H  263  1  0.02435000  0.86552000  0.23308700  1
  H  265  1  0.97271100  0.76273900  0.22120800  1
  H  266  1  0.99013200  0.75816600  0.24754600  1
  H  268  1  0.98790500  0.88832700  0.33772600  1
  H  269  1  0.95564400  0.90722800  0.32568900  1
  H  271  1  0.83175000  0.81126500  0.27275500  1
  H  272  1  0.84739100  0.83748600  0.26722900  1
  H  274  1  0.16698700  0.81370200  0.27238800  1
  H  275  1  0.14997800  0.83971300  0.26697000  1
  H  300  1  0.14010900  0.12252900  0.61051700  1
  H  301  1  0.07636200  0.13207900  0.59420000  1
  H  302  1  0.92371900  0.13289700  0.59379200  1
  H  303  1  0.85931200  0.12417100  0.60993000  1
  H  304  1  0.91949400  0.08444500  0.65431500  1
  H  305  1  0.07769600  0.08286000  0.65414900  1
  H  306  1  0.99747600  0.06591600  0.60810000  1
  H  307  1  0.98107200  0.00664300  0.63898700  1
  H  308  1  0.98752600  0.02367700  0.67299200  1
  H  309  1  0.99868300  0.13406100  0.65483200  1
  H  310  1  0.00082200  0.08885200  0.71790500  1
  H  311  1  0.00116900  0.12698400  0.72179000  1
  H  314  1  0.00020500  0.13877000  0.60541500  1
  H  315  1  0.99968400  0.11631800  0.58799800  1
  H  317  1  0.96987200  0.05984000  0.69143300  1
  H  318  1  0.02437200  0.05834800  0.69075200  1
  H  320  1  0.97271700  0.16113500  0.70261100  1
  H  321  1  0.99015300  0.16569700  0.67627400  1
  H  323  1  0.98787100  0.03551300  0.58613000  1
  H  324  1  0.95561700  0.01661200  0.59817400  1
  H  326  1  0.83172500  0.11255300  0.65110600  1
  H  327  1  0.84738500  0.08633300  0.65661700  1
  H  329  1  0.16696100  0.11018600  0.65142700  1
  H  330  1  0.14996900  0.08417600  0.65686500  1
  H  355  1  0.14014000  0.31329800  0.12251600  1
  H  356  1  0.07640000  0.32962200  0.13207800  1
  H  357  1  0.92375000  0.33004200  0.13290900  1
  H  358  1  0.85933600  0.31391700  0.12417900  1
  H  359  1  0.91948800  0.26952400  0.08445000  1
  H  360  1  0.07768400  0.26966700  0.08286100  1
  H  361  1  0.99744500  0.31573000  0.06593100  1
  H  362  1  0.98105900  0.28485500  0.00665100  1
  H  363  1  0.98753200  0.25084700  0.02367600  1
  H  364  1  0.99869300  0.26898600  0.13406500  1
  H  365  1  0.00084700  0.20592200  0.08884400  1
  H  366  1  0.00119200  0.20202800  0.12697500  1
  H  369  1  0.00023200  0.31841400  0.13877900  1
  H  370  1  0.99971800  0.33582600  0.11632300  1
  H  372  1  0.96988700  0.23239500  0.05983600  1
  H  373  1  0.02438600  0.23308400  0.05834600  1
  H  375  1  0.97272600  0.22120000  0.16112900  1
  H  376  1  0.99015000  0.24753800  0.16569600  1
  H  378  1  0.98780000  0.33770700  0.03554000  1
  H  379  1  0.95557000  0.32566100  0.01663000  1
  H  381  1  0.83170400  0.27275500  0.11256100  1
  H  382  1  0.84737500  0.26723000  0.08634500  1
  H  384  1  0.16697200  0.27238300  0.11016800  1
  H  385  1  0.14995000  0.26694500  0.08416300  1
  H  410  1  0.14013700  0.61054100  0.80131500  1
  H  411  1  0.07638800  0.59421600  0.79176900  1
  H  412  1  0.92374700  0.59381000  0.79094300  1
  H  413  1  0.85933900  0.60994600  0.79966700  1
  H  414  1  0.91951300  0.65433500  0.83939100  1
  H  415  1  0.07771400  0.65417800  0.84097100  1
  H  416  1  0.99744200  0.60812400  0.85792500  1
  H  417  1  0.98104400  0.63901700  0.91719200  1
  H  418  1  0.98753600  0.67302000  0.90015800  1
  H  419  1  0.99872300  0.65484800  0.78977600  1
  H  420  1  0.00087300  0.71792600  0.83497800  1
  H  421  1  0.00122500  0.72180800  0.79684700  1
  H  424  1  0.00023800  0.60542800  0.78507300  1
  H  425  1  0.99970900  0.58801600  0.80752900  1
  H  427  1  0.96990500  0.69146200  0.86398900  1
  H  428  1  0.02440300  0.69077400  0.86548900  1
  H  430  1  0.97276300  0.70262900  0.76270000  1
  H  431  1  0.99018400  0.67628800  0.75813900  1
  H  433  1  0.98779400  0.58615700  0.88832100  1
  H  434  1  0.95555800  0.59821100  0.90722400  1
  H  436  1  0.83173800  0.65111700  0.81127800  1
  H  437  1  0.84740000  0.65663900  0.83749600  1
  H  439  1  0.16697700  0.65144900  0.81364700  1
  H  440  1  0.14997400  0.65690500  0.83965200  1
  H  465  1  0.35827200  0.60443000  0.82721000  1
  H  466  1  0.42264500  0.61525900  0.84233400  1
  H  467  1  0.57564400  0.61708900  0.84045300  1
  H  468  1  0.63941700  0.60810700  0.82357100  1
  H  469  1  0.57591200  0.59035200  0.76763900  1
  H  470  1  0.41836200  0.58665400  0.77027400  1
  H  471  1  0.50436600  0.56049000  0.80714700  1
  H  472  1  0.51067000  0.51225200  0.76016000  1
  H  473  1  0.50164700  0.53847000  0.73268100  1
  H  474  1  0.49586600  0.63921300  0.78183400  1
  H  475  1  0.48789400  0.61366600  0.70867900  1
  H  476  1  0.48682800  0.65127000  0.71570500  1
  H  479  1  0.49773600  0.62962200  0.83021200  1
  H  480  1  0.49995000  0.60346400  0.84123800  1
  H  482  1  0.52035200  0.57842000  0.72480700  1
  H  483  1  0.46597400  0.57683300  0.72681600  1
  H  485  1  0.49054800  0.67557900  0.77064300  1
  H  486  1  0.46585100  0.67962100  0.74596800  1
  H  488  1  0.51545200  0.52424200  0.81905000  1
  H  489  1  0.54520000  0.51041000  0.79988400  1
  H  491  1  0.64670300  0.58304200  0.76880800  1
  H  492  1  0.66633200  0.57883200  0.79450900  1
  H  494  1  0.34861700  0.57687400  0.77393600  1
  H  495  1  0.32995900  0.57468400  0.80008000  1
  H  520  1  0.35826800  0.31941600  0.09662400  1
  H  521  1  0.42264500  0.30859100  0.08150300  1
  H  522  1  0.57564400  0.30676500  0.08338800  1
  H  523  1  0.63941100  0.31574600  0.10027200  1
  H  524  1  0.57589300  0.33349400  0.15620500  1
  H  525  1  0.41834900  0.33718900  0.15356400  1
  H  526  1  0.50437500  0.36335500  0.11669100  1
  H  527  1  0.51066700  0.41159600  0.16367600  1
  H  528  1  0.50164100  0.38537900  0.19115500  1
  H  529  1  0.49584800  0.28463200  0.14201100  1
  H  530  1  0.48786300  0.31018800  0.21516300  1
  H  531  1  0.48678800  0.27258300  0.20814000  1
  H  534  1  0.49773300  0.29423000  0.09362300  1
  H  535  1  0.49995000  0.32039000  0.08260200  1
  H  537  1  0.52033600  0.34543000  0.19903400  1
  H  538  1  0.46596100  0.34702100  0.19702100  1
  H  540  1  0.49051700  0.24826800  0.15320600  1
  H  541  1  0.46582300  0.24422900  0.17788100  1
  H  543  1  0.51546100  0.39960300  0.10478600  1
  H  544  1  0.54518800  0.41344300  0.12395600  1
  H  546  1  0.64669100  0.34080000  0.15503900  1
  H  547  1  0.66632000  0.34501500  0.12933800  1
  H  549  1  0.34860200  0.34696500  0.14990100  1
  H  550  1  0.32995200  0.34916100  0.12375600  1
  H  575  1  0.35830200  0.09661600  0.60442800  1
  H  576  1  0.42268200  0.08149700  0.61525700  1
  H  577  1  0.57568400  0.08338800  0.61708500  1
  H  578  1  0.63944800  0.10027100  0.60809800  1
  H  579  1  0.57592400  0.15619400  0.59032800  1
  H  580  1  0.41838300  0.15354900  0.58663300  1
  H  581  1  0.50440600  0.11667800  0.56047900  1
  H  582  1  0.51066700  0.16365700  0.51223100  1
  H  583  1  0.50163700  0.19114000  0.53844500  1
  H  584  1  0.49588200  0.14200500  0.63919800  1
  H  585  1  0.48787800  0.21515400  0.61363800  1
  H  586  1  0.48680400  0.20813500  0.65124200  1
  H  589  1  0.49776700  0.09362100  0.62961300  1
  H  590  1  0.49999000  0.08259500  0.60345500  1
  H  592  1  0.52035800  0.19902300  0.57839500  1
  H  593  1  0.46598000  0.19700800  0.57680500  1
  H  595  1  0.49055700  0.15320200  0.67556300  1
  H  596  1  0.46582900  0.17786900  0.67959500  1
  H  598  1  0.51547400  0.10476900  0.52423200  1
  H  599  1  0.54519700  0.12393500  0.51038700  1
  H  601  1  0.64671200  0.15502300  0.58300900  1
  H  602  1  0.66636300  0.12932200  0.57882900  1
  H  604  1  0.34864200  0.14987400  0.57684800  1
  H  605  1  0.32996500  0.12373100  0.57468500  1
  H  630  1  0.35825600  0.82721800  0.31940600  1
  H  631  1  0.42263600  0.84234100  0.30857900  1
  H  632  1  0.57564400  0.84046100  0.30676000  1
  H  633  1  0.63940500  0.82358700  0.31575300  1
  H  634  1  0.57589600  0.76765800  0.33352000  1
  H  635  1  0.41835600  0.77029100  0.33721100  1
  H  636  1  0.50439400  0.80716900  0.36336300  1
  H  637  1  0.51067000  0.76019300  0.41161300  1
  H  638  1  0.50162200  0.73271000  0.38540200  1
  H  639  1  0.49583900  0.78183800  0.28464600  1
  H  640  1  0.48784400  0.70869100  0.31021400  1
  H  641  1  0.48676300  0.71570600  0.27260800  1
  H  644  1  0.49771400  0.83022100  0.29422700  1
  H  645  1  0.49995900  0.84125000  0.32038400  1
  H  647  1  0.52032400  0.72482200  0.34545200  1
  H  648  1  0.46594600  0.72684100  0.34704600  1
  H  650  1  0.49052400  0.77063700  0.24828300  1
  H  651  1  0.46579800  0.74596800  0.24425000  1
  H  653  1  0.51548600  0.81908000  0.39960700  1
  H  654  1  0.54522200  0.79991200  0.41344400  1
  H  656  1  0.64668800  0.76885600  0.34086800  1
  H  657  1  0.66632000  0.79456500  0.34502400  1
  H  659  1  0.34859900  0.77394600  0.34696900  1
  H  660  1  0.32991600  0.80008700  0.34914900  1
  H  685  1  0.63927200  0.31270500  0.82335300  1
  H  686  1  0.57567500  0.29891200  0.83675400  1
  H  687  1  0.42251300  0.29797000  0.83689800  1
  H  688  1  0.35825900  0.31117900  0.82366800  1
  H  689  1  0.41923900  0.34014600  0.77183400  1
  H  690  1  0.57663500  0.34147200  0.77190300  1
  H  691  1  0.49668600  0.35869300  0.81645700  1
  H  692  1  0.48073400  0.41691700  0.78366500  1
  H  693  1  0.48739500  0.39875800  0.75020700  1
  H  694  1  0.49798800  0.28893900  0.77224400  1
  H  695  1  0.49995000  0.33193200  0.70761100  1
  H  696  1  0.50000800  0.29371800  0.70503500  1
  H  699  1  0.49942300  0.28738500  0.82291600  1
  H  700  1  0.49877300  0.31063800  0.83923100  1
  H  702  1  0.46943200  0.36191400  0.73301300  1
  H  703  1  0.52393900  0.36332700  0.73362200  1
  H  705  1  0.47062700  0.26036000  0.72580300  1
  H  706  1  0.49049000  0.25639000  0.75176800  1
  H  708  1  0.48599400  0.38945700  0.83741300  1
  H  709  1  0.45456700  0.40823700  0.82464200  1
  H  711  1  0.34929500  0.34806900  0.77611200  1
  H  712  1  0.33123400  0.34640200  0.80240000  1
  H  714  1  0.64715000  0.34877800  0.77507200  1
  H  715  1  0.66460100  0.34856600  0.80153000  1
  H  740  1  0.63926600  0.61114200  0.10050900  1
  H  741  1  0.57567200  0.62493400  0.08710200  1
  H  742  1  0.42250700  0.62587500  0.08694700  1
  H  743  1  0.35824700  0.61267300  0.10018000  1
  H  744  1  0.41922100  0.58370300  0.15201300  1
  H  745  1  0.57661700  0.58236900  0.15195000  1
  H  746  1  0.49667000  0.56515100  0.10739100  1
  H  747  1  0.48070600  0.50692500  0.14018300  1
  H  748  1  0.48737000  0.52508400  0.17364000  1
  H  749  1  0.49797300  0.63490200  0.15160500  1
  H  750  1  0.49992500  0.59190900  0.21623700  1
  H  751  1  0.49998400  0.63012200  0.21881500  1
  H  754  1  0.49941700  0.63646000  0.10093700  1
  H  755  1  0.49877300  0.61320900  0.08461800  1
  H  757  1  0.46942300  0.56192500  0.19083900  1
  H  758  1  0.52392700  0.56051600  0.19022200  1
  H  760  1  0.47059600  0.66348500  0.19804100  1
  H  761  1  0.49048000  0.66745200  0.17207900  1
  H  763  1  0.48598100  0.53438500  0.08643600  1
  H  764  1  0.45454900  0.51560500  0.09920400  1
  H  766  1  0.34927600  0.57578900  0.14774800  1
  H  767  1  0.33120600  0.57744300  0.12146000  1
  H  769  1  0.64713400  0.57506400  0.14878500  1
  H  770  1  0.66459500  0.57528200  0.12232800  1
  H  795  1  0.63926300  0.82332500  0.61117600  1
  H  796  1  0.57566200  0.83673400  0.62496200  1
  H  797  1  0.42248800  0.83688100  0.62589700  1
  H  798  1  0.35822500  0.82363000  0.61271400  1
  H  799  1  0.41922400  0.77181200  0.58372800  1
  H  800  1  0.57661100  0.77189100  0.58239000  1
  H  801  1  0.49667900  0.81644500  0.56516600  1
  H  802  1  0.48076800  0.78365400  0.50693700  1
  H  803  1  0.48742200  0.75019600  0.52509700  1
  H  804  1  0.49795100  0.77223500  0.63491800  1
  H  805  1  0.49994100  0.70760100  0.59192700  1
  H  806  1  0.49999000  0.70502600  0.63014200  1
  H  809  1  0.49939900  0.82289500  0.63647800  1
  H  810  1  0.49876400  0.83922000  0.61323000  1
  H  812  1  0.46944700  0.73299700  0.56193500  1
  H  813  1  0.52395100  0.73361600  0.56053900  1
  H  815  1  0.47060800  0.72579200  0.66350900  1
  H  816  1  0.49045600  0.75176300  0.66746900  1
  H  818  1  0.48599100  0.83740100  0.53440500  1
  H  819  1  0.45458300  0.82463000  0.51561700  1
  H  821  1  0.34925800  0.77605800  0.57583300  1
  H  822  1  0.33115000  0.80233800  0.57749400  1
  H  824  1  0.64712200  0.77505400  0.57508500  1
  H  825  1  0.66459800  0.80150700  0.57531600  1
  H  850  1  0.63929400  0.10053600  0.31268800  1
  H  851  1  0.57569300  0.08713200  0.29889000  1
  H  852  1  0.42253100  0.08697600  0.29795200  1
  H  853  1  0.35826500  0.10021400  0.31114400  1
  H  854  1  0.41924600  0.15203200  0.34014000  1
  H  855  1  0.57664200  0.15196800  0.34147400  1
  H  856  1  0.49671600  0.10740800  0.35868400  1
  H  857  1  0.48074900  0.14019100  0.41691300  1
  H  858  1  0.48740700  0.17365200  0.39876100  1
  H  859  1  0.49796400  0.15163000  0.28894000  1
  H  860  1  0.49992500  0.21625700  0.33193900  1
  H  861  1  0.49996800  0.21883900  0.29372400  1
  H  864  1  0.49943300  0.10096900  0.28737000  1
  H  865  1  0.49880700  0.08464300  0.31061700  1
  H  867  1  0.46943800  0.19085100  0.36192400  1
  H  868  1  0.52394200  0.19024500  0.36332600  1
  H  870  1  0.47059900  0.19807700  0.26035600  1
  H  871  1  0.49045000  0.17210700  0.25639100  1
  H  873  1  0.48602100  0.08644800  0.38944200  1
  H  874  1  0.45459200  0.09921500  0.40822200  1
  H  876  1  0.34929200  0.14776300  0.34805300  1
  H  877  1  0.33119000  0.12148300  0.34637100  1
  H  879  1  0.64713700  0.14879700  0.34878800  1
  H  880  1  0.66460700  0.12234200  0.34854900  1
  H  887  1  0.06177900  0.18447000  0.17410000  1
  H  889  1  0.00033700  0.21801900  0.25381800  1
  H  890  1  0.99341100  0.23902900  0.23777000  1
  H  892  1  0.05829500  0.23676200  0.16686400  1
  H  894  1  0.04815300  0.18698100  0.25512200  1
  H  901  1  0.06183100  0.73935100  0.74973600  1
  H  903  1  0.00035500  0.70582100  0.67001600  1
  H  904  1  0.99342400  0.68481000  0.68606000  1
  H  906  1  0.05832600  0.68705900  0.75696200  1
  H  908  1  0.04817900  0.73685800  0.66871400  1
  H  915  1  0.06177600  0.74976000  0.18447900  1
  H  917  1  0.00030900  0.67004100  0.21801800  1
  H  918  1  0.99338000  0.68608700  0.23902900  1
  H  920  1  0.05827600  0.75698900  0.23677000  1
  H  922  1  0.04816500  0.66874300  0.18699200  1
  H  929  1  0.06177800  0.17407100  0.73935100  1
  H  931  1  0.00038600  0.25381800  0.70584500  1
  H  932  1  0.99345100  0.23778300  0.68482600  1
  H  934  1  0.05829000  0.16686700  0.68705600  1
  H  936  1  0.04821600  0.25509300  0.73688400  1
  H  943  1  0.55877400  0.68719200  0.67585900  1
  H  945  1  0.49908100  0.71976800  0.75631100  1
  H  946  1  0.49193400  0.74099200  0.74057100  1
  H  948  1  0.55717000  0.73936600  0.66958800  1
  H  950  1  0.54847000  0.68910300  0.75678200  1
  H  957  1  0.55875300  0.23667900  0.24799100  1
  H  959  1  0.49905400  0.20407800  0.16755100  1
  H  960  1  0.49191500  0.18285900  0.18329700  1
  H  962  1  0.55716400  0.18450700  0.25427700  1
  H  964  1  0.54844300  0.23474400  0.16707000  1
  H  971  1  0.55877700  0.24799300  0.68718600  1
  H  973  1  0.49904400  0.16754500  0.71975000  1
  H  974  1  0.49192800  0.18328200  0.74098000  1
  H  976  1  0.55718800  0.25425300  0.73935700  1
  H  978  1  0.54845500  0.16708500  0.68909300  1
  H  985  1  0.55873700  0.67584400  0.23667300  1
  H  987  1  0.49903800  0.75629400  0.20409700  1
  H  988  1  0.49192500  0.74055700  0.18286700  1
  H  990  1  0.55717300  0.66958100  0.18450400  1
  H  992  1  0.54843000  0.75675400  0.23476200  1
  H  999  1  0.79208000  0.10027200  0.33546600  1
  H  1001  1  0.66666667  0.13504100  0.28018000  1
  H  1002  1  0.69462600  0.12092900  0.26289800  1
  H  1004  1  0.81984800  0.07581300  0.30623400  1
  H  1006  1  0.67443400  0.15296000  0.31187000  1
  H  1013  1  0.79212300  0.82351600  0.58837700  1
  H  1015  1  0.66676600  0.78878500  0.64371900  1
  H  1016  1  0.69467900  0.80292800  0.66098300  1
  H  1018  1  0.81987200  0.84802800  0.61758000  1
  H  1020  1  0.67438800  0.77090500  0.61201500  1
  H  1027  1  0.79215700  0.58838900  0.10031200  1
  H  1029  1  0.66680300  0.64371800  0.13509000  1
  H  1030  1  0.69475600  0.66099100  0.12097900  1
  H  1032  1  0.81990600  0.61761300  0.07581500  1
  H  1034  1  0.67440900  0.61198800  0.15291300  1
  H  1041  1  0.79214500  0.33549100  0.82356400  1
  H  1043  1  0.66684600  0.28012900  0.78878500  1
  H  1044  1  0.69479000  0.26286700  0.80291500  1
  H  1046  1  0.81994000  0.30629300  0.84805300  1
  H  1048  1  0.67443400  0.31185400  0.77095300  1
  H  1055  1  0.19775700  0.81911200  0.33325800  1
  H  1057  1  0.33761400  0.79637700  0.28133400  1
  H  1058  1  0.31134300  0.81185700  0.26448600  1
  H  1060  1  0.17432000  0.84779300  0.30584600  1
  H  1062  1  0.32357200  0.77289600  0.30948200  1
  H  1069  1  0.19769700  0.10479300  0.59058600  1
  H  1071  1  0.33758700  0.12751600  0.64250100  1
  H  1072  1  0.31134000  0.11202100  0.65934500  1
  H  1074  1  0.17431500  0.07606800  0.61799300  1
  H  1076  1  0.32355600  0.15097000  0.61432200  1
  H  1083  1  0.19770800  0.33323900  0.10473300  1
  H  1085  1  0.33750000  0.28128800  0.12756200  1
  H  1086  1  0.31120500  0.26442700  0.11210900  1
  H  1088  1  0.17428800  0.30581200  0.07604500  1
  H  1090  1  0.32349800  0.30950000  0.15093900  1
  H  1097  1  0.19770000  0.59061600  0.81908100  1
  H  1099  1  0.33753400  0.64254500  0.79626900  1
  H  1100  1  0.31126300  0.65940200  0.81173800  1
  H  1102  1  0.17432300  0.61804300  0.84779200  1
  H  1104  1  0.32350700  0.61433700  0.77288000  1
  H  1111  1  0.20072400  0.82050000  0.59334500  1
  H  1113  1  0.33479700  0.78830500  0.64444400  1
  H  1114  1  0.30765700  0.80154200  0.66275100  1
  H  1116  1  0.17575000  0.84493500  0.62469600  1
  H  1118  1  0.32353200  0.76989100  0.61284600  1
  H  1125  1  0.20066400  0.10340500  0.33053000  1
  H  1127  1  0.33474700  0.13560000  0.27942600  1
  H  1128  1  0.30763000  0.12235000  0.26111900  1
  H  1130  1  0.17573600  0.07893400  0.29918400  1
  H  1132  1  0.32352600  0.15397000  0.31105100  1
  H  1139  1  0.20067900  0.33051600  0.82053700  1
  H  1141  1  0.33468300  0.27943000  0.78820200  1
  H  1142  1  0.30753200  0.26110700  0.80140900  1
  H  1144  1  0.17574900  0.29914200  0.84496500  1
  H  1146  1  0.32344900  0.31109200  0.76991800  1
  H  1153  1  0.20066200  0.59332900  0.10332200  1
  H  1155  1  0.33468900  0.64442200  0.13562400  1
  H  1156  1  0.30755500  0.66273800  0.12239800  1
  H  1158  1  0.17572600  0.62469800  0.07888000  1
  H  1160  1  0.32344600  0.61276900  0.15392700  1
  H  1167  1  0.79761700  0.11003100  0.59188600  1
  H  1169  1  0.65980000  0.12758900  0.64724300  1
  H  1170  1  0.68722600  0.11096000  0.66239700  1
  H  1172  1  0.82301000  0.07938800  0.61692400  1
  H  1174  1  0.67074500  0.15286300  0.62076700  1
  H  1181  1  0.79768800  0.81376000  0.33195000  1
  H  1183  1  0.65983100  0.79621600  0.27660500  1
  H  1184  1  0.68722300  0.81286400  0.26145500  1
  H  1186  1  0.82302000  0.84444900  0.30692400  1
  H  1188  1  0.67076000  0.77096700  0.30311300  1
  H  1195  1  0.79765400  0.59191500  0.81378600  1
  H  1197  1  0.65988300  0.64732100  0.79621000  1
  H  1198  1  0.68734300  0.66247400  0.81282200  1
  H  1200  1  0.82304700  0.61694000  0.84445100  1
  H  1202  1  0.67074500  0.62079200  0.77101400  1
  H  1209  1  0.79765700  0.33194600  0.11007500  1
  H  1211  1  0.65988000  0.27653600  0.12762000  1
  H  1212  1  0.68732200  0.26139700  0.11098500  1
  H  1214  1  0.82305400  0.30693900  0.07939400  1
  H  1216  1  0.67075100  0.30305500  0.15283400  1
  H  1223  1  0.95169900  0.97786900  0.33738300  1
  H  1225  1  0.06986900  0.92340000  0.29518700  1
  H  1226  1  0.07397300  0.94578800  0.28090100  1
  H  1228  1  0.95641400  0.00636900  0.31033700  1
  H  1230  1  0.04774000  0.91096400  0.32805500  1
  H  1237  1  0.95171200  0.94596500  0.58647000  1
  H  1239  1  0.06988900  0.00044000  0.62865300  1
  H  1240  1  0.07398200  0.97805700  0.64294900  1
  H  1242  1  0.95640800  0.91747200  0.61352400  1
  H  1244  1  0.04771500  0.01288000  0.59579800  1
  H  1251  1  0.95167500  0.58646700  0.97787400  1
  H  1253  1  0.06985800  0.62865300  0.92340300  1
  H  1254  1  0.07395400  0.64294500  0.94578800  1
  H  1256  1  0.95638300  0.61349900  0.00637900  1
  H  1258  1  0.04765400  0.59580000  0.91095500  1
  H  1265  1  0.95165900  0.33738500  0.94599500  1
  H  1267  1  0.06988300  0.29521900  0.00045700  1
  H  1268  1  0.07399600  0.28093500  0.97806800  1
  H  1270  1  0.95639300  0.31034200  0.91749500  1
  H  1272  1  0.04766800  0.32806500  0.01291100  1
  H  1279  1  0.45111800  0.47860200  0.83603100  1
  H  1281  1  0.56885400  0.42352200  0.79427200  1
  H  1282  1  0.57267800  0.44566500  0.77958400  1
  H  1284  1  0.45560800  0.50668200  0.80859300  1
  H  1286  1  0.54676100  0.41149200  0.82731700  1
  H  1293  1  0.45114300  0.44522900  0.08778700  1
  H  1295  1  0.56885700  0.50030800  0.12956500  1
  H  1296  1  0.57266000  0.47817100  0.14426100  1
  H  1298  1  0.45559900  0.41714800  0.11522800  1
  H  1300  1  0.54674300  0.51234700  0.09652700  1
  H  1307  1  0.45116500  0.08777700  0.47859300  1
  H  1309  1  0.56891800  0.12955200  0.42353700  1
  H  1310  1  0.57270000  0.14425100  0.44567400  1
  H  1312  1  0.45561100  0.11520300  0.50668300  1
  H  1314  1  0.54678600  0.09651900  0.41148600  1
  H  1321  1  0.45118000  0.83607500  0.44525900  1
  H  1323  1  0.56890600  0.79428900  0.50032100  1
  H  1324  1  0.57271200  0.77959900  0.47817800  1
  H  1326  1  0.45564200  0.80864400  0.41717200  1
  H  1328  1  0.54678000  0.82732100  0.51237800  1
  C  1  1  0.99531400  0.10977200  0.26115200  1
  C  2  1  0.99417200  0.10184500  0.23984400  1
  C  3  1  0.00000400  0.06378600  0.25348100  1
  C  4  1  0.00034300  0.07109400  0.27504400  1
  C  5  1  0.00431000  0.05562500  0.29168700  1
  C  6  1  0.00891200  0.03351300  0.28728400  1
  C  7  1  0.00884900  0.02679200  0.26569400  1
  C  8  1  0.00392800  0.04167000  0.24905200  1
  C  9  1  0.99139400  0.11631000  0.22245400  1
  C  10  1  0.99032900  0.13852800  0.22593200  1
  C  11  1  0.99185300  0.14691100  0.24690600  1
  C  12  1  0.99390700  0.13236600  0.26422500  1
  C  13  1  0.95885600  0.09837000  0.29287800  1
  C  14  1  0.95966000  0.10809400  0.31344100  1
  C  15  1  0.03747700  0.11001800  0.31227400  1
  C  16  1  0.03770400  0.10053800  0.29159700  1
  C  17  1  0.07490300  0.11691400  0.32155800  1
  C  18  1  0.11229300  0.11472700  0.31048700  1
  C  19  1  0.11370300  0.10477100  0.29021700  1
  C  20  1  0.07619700  0.09779000  0.28108600  1
  C  21  1  0.91990400  0.09377000  0.28352000  1
  C  22  1  0.88238000  0.09944800  0.29352400  1
  C  23  1  0.88429200  0.10971000  0.31363500  1
  C  24  1  0.92225600  0.11342500  0.32372300  1
  C  37  1  0.99802100  0.09477500  0.28023600  1
  C  38  1  0.99874200  0.11407300  0.32420700  1
  C  41  1  0.99625400  0.07861900  0.23500600  1
  C  44  1  0.99239500  0.17048600  0.25041300  1
  C  47  1  0.01544400  0.01732600  0.30447000  1
  C  50  1  0.15328000  0.10304600  0.27817600  1
  C  53  1  0.84220500  0.09663300  0.28221200  1
  C  56  1  0.99533900  0.81406900  0.66270500  1
  C  57  1  0.99419000  0.82199300  0.68401300  1
  C  58  1  0.99999800  0.86005400  0.67038300  1
  C  59  1  0.00034600  0.85274900  0.64881800  1
  C  60  1  0.00431100  0.86822100  0.63217800  1
  C  61  1  0.00890200  0.89033300  0.63658400  1
  C  62  1  0.00882900  0.89705100  0.65817400  1
  C  63  1  0.00391200  0.88217000  0.67481500  1
  C  64  1  0.99141900  0.80752400  0.70140100  1
  C  65  1  0.99035900  0.78530600  0.69791800  1
  C  66  1  0.99188400  0.77692700  0.67694400  1
  C  67  1  0.99393800  0.79147500  0.65962600  1
  C  68  1  0.95888400  0.82547000  0.63097800  1
  C  69  1  0.95969700  0.81575800  0.61041100  1
  C  70  1  0.03751400  0.81382900  0.61158800  1
  C  71  1  0.03773100  0.82331400  0.63226300  1
  C  72  1  0.07495000  0.80694700  0.60230400  1
  C  73  1  0.11233400  0.80913900  0.61337800  1
  C  74  1  0.11372900  0.81909100  0.63365200  1
  C  75  1  0.07621800  0.82607200  0.64277700  1
  C  76  1  0.91992200  0.83004600  0.64033700  1
  C  77  1  0.88240200  0.82439800  0.63031300  1
  C  78  1  0.88432900  0.81414300  0.61019900  1
  C  79  1  0.92230000  0.81042200  0.60012100  1
  C  92  1  0.99804300  0.82906800  0.64362400  1
  C  93  1  0.99878500  0.80977700  0.59964800  1
  C  96  1  0.99626000  0.84521700  0.68885500  1
  C  99  1  0.99242300  0.75335300  0.67343200  1
  C  102  1  0.01544000  0.90652100  0.61940100  1
  C  105  1  0.15329800  0.82081900  0.64570000  1
  C  108  1  0.84221700  0.82721600  0.64161800  1
  C  111  1  0.99534800  0.66269700  0.10977000  1
  C  112  1  0.99419300  0.68400300  0.10184400  1
  C  113  1  0.00001100  0.67036900  0.06378400  1
  C  114  1  0.00036200  0.64880400  0.07109100  1
  C  115  1  0.00432300  0.63216100  0.05562200  1
  C  116  1  0.00890600  0.63656600  0.03350900  1
  C  117  1  0.00883100  0.65815400  0.02678800  1
  C  118  1  0.00394100  0.67479700  0.04166800  1
  C  119  1  0.99141600  0.70139300  0.11630900  1
  C  120  1  0.99034400  0.69791500  0.13852700  1
  C  121  1  0.99188400  0.67694100  0.14690900  1
  C  122  1  0.99393800  0.65962100  0.13236400  1
  C  123  1  0.95889000  0.63096900  0.09837200  1
  C  124  1  0.95970600  0.61040300  0.10808900  1
  C  125  1  0.03752000  0.61157600  0.11001100  1
  C  126  1  0.03773900  0.63225300  0.10053000  1
  C  127  1  0.07495400  0.60229300  0.11689700  1
  C  128  1  0.11234200  0.61336400  0.11469900  1
  C  129  1  0.11373900  0.63363800  0.10475100  1
  C  130  1  0.07622800  0.64276600  0.09777200  1
  C  131  1  0.91993400  0.64032600  0.09377900  1
  C  132  1  0.88241700  0.63031900  0.09946400  1
  C  133  1  0.88433900  0.61020900  0.10972600  1
  C  134  1  0.92230600  0.60012100  0.11343100  1
  C  147  1  0.99805200  0.64361200  0.09477300  1
  C  148  1  0.99879100  0.59964000  0.11407000  1
  C  151  1  0.99626300  0.68884200  0.07861800  1
  C  154  1  0.99241700  0.67343400  0.17048400  1
  C  157  1  0.01542200  0.61938000  0.01732000  1
  C  160  1  0.15331000  0.64568400  0.10302200  1
  C  163  1  0.84223600  0.64162900  0.09665600  1
  C  166  1  0.99535100  0.26114200  0.81408700  1
  C  167  1  0.99419700  0.23983600  0.82201700  1
  C  168  1  0.99998900  0.25347500  0.86007500  1
  C  169  1  0.00034000  0.27503800  0.85276500  1
  C  170  1  0.00429500  0.29168400  0.86823300  1
  C  171  1  0.00887700  0.28728300  0.89034600  1
  C  172  1  0.00880500  0.26569400  0.89707000  1
  C  173  1  0.00391400  0.24905000  0.88219100  1
  C  174  1  0.99141900  0.22244400  0.80755200  1
  C  175  1  0.99036900  0.22592000  0.78533300  1
  C  176  1  0.99190500  0.24689300  0.77694900  1
  C  177  1  0.99396600  0.26421300  0.79149300  1
  C  178  1  0.95888100  0.29286700  0.82547400  1
  C  179  1  0.95969700  0.31343100  0.81575100  1
  C  180  1  0.03751300  0.31226600  0.81385000  1
  C  181  1  0.03773100  0.29158900  0.82333200  1
  C  182  1  0.07495200  0.32155400  0.80697600  1
  C  183  1  0.11233400  0.31047600  0.80916300  1
  C  184  1  0.11373100  0.29020200  0.81911300  1
  C  185  1  0.07622000  0.28107800  0.82609400  1
  C  186  1  0.91992500  0.28350700  0.83005400  1
  C  187  1  0.88240500  0.29353100  0.82440100  1
  C  188  1  0.88432000  0.31363800  0.81413700  1
  C  189  1  0.92229600  0.32370500  0.81039300  1
  C  202  1  0.99804300  0.28022700  0.82908300  1
  C  203  1  0.99878500  0.32419800  0.80978000  1
  C  206  1  0.99625100  0.23500000  0.84524300  1
  C  209  1  0.99244700  0.25039700  0.75337400  1
  C  212  1  0.01541600  0.30446900  0.90653100  1
  C  215  1  0.15330100  0.27815700  0.82083400  1
  C  218  1  0.84221700  0.28223500  0.82725000  1
  C  221  1  0.99928700  0.82215500  0.25858600  1
  C  222  1  0.99945000  0.83525900  0.23998800  1
  C  223  1  0.99540100  0.86861100  0.26293100  1
  C  224  1  0.99754700  0.85606800  0.28188600  1
  C  225  1  0.99616100  0.86682300  0.30197900  1
  C  226  1  0.99089500  0.88929200  0.30359200  1
  C  227  1  0.98691400  0.90112800  0.28445300  1
  C  228  1  0.99023900  0.89104900  0.26443200  1
  C  229  1  0.00069500  0.82570300  0.21944600  1
  C  230  1  0.00096900  0.80333200  0.21713000  1
  C  231  1  0.99956400  0.78990700  0.23529300  1
  C  232  1  0.99924400  0.79951100  0.25578900  1
  C  233  1  0.03862700  0.82469100  0.29136600  1
  C  234  1  0.03850500  0.81043800  0.30910100  1
  C  235  1  0.96058100  0.80983600  0.30919200  1
  C  236  1  0.95958900  0.82390600  0.29132600  1
  C  237  1  0.92337100  0.80150900  0.31749100  1
  C  238  1  0.88539200  0.80674800  0.30812100  1
  C  239  1  0.88326100  0.82111600  0.29071900  1
  C  240  1  0.92056900  0.82954300  0.28262800  1
  C  241  1  0.07727600  0.83098100  0.28266300  1
  C  242  1  0.11507200  0.82286800  0.29050500  1
  C  243  1  0.11378100  0.80825200  0.30772300  1
  C  244  1  0.07618300  0.80250100  0.31719900  1
  C  257  1  0.99887400  0.83182300  0.28088100  1
  C  258  1  0.99979200  0.80260900  0.31900100  1
  C  261  1  0.99731600  0.85895600  0.24123500  1
  C  264  1  0.99767300  0.76627900  0.23247500  1
  C  267  1  0.98638700  0.90012300  0.32479500  1
  C  270  1  0.84299900  0.82600800  0.28025900  1
  C  273  1  0.15504200  0.82825900  0.27995500  1
  C  276  1  0.99927200  0.10170400  0.66525100  1
  C  277  1  0.99944700  0.08860500  0.68385200  1
  C  278  1  0.99539400  0.05524700  0.66091700  1
  C  279  1  0.99753500  0.06778500  0.64195900  1
  C  280  1  0.99615800  0.05702500  0.62186800  1
  C  281  1  0.99086800  0.03455700  0.62026500  1
  C  282  1  0.98688900  0.02272400  0.63940500  1
  C  283  1  0.99024200  0.03280600  0.65942300  1
  C  284  1  0.00070900  0.09816600  0.70439000  1
  C  285  1  0.00093800  0.12053600  0.70670100  1
  C  286  1  0.99955200  0.13395700  0.68853400  1
  C  287  1  0.99922800  0.12434900  0.66804200  1
  C  288  1  0.03860000  0.09916300  0.63246600  1
  C  289  1  0.03846400  0.11341200  0.61472900  1
  C  290  1  0.96054100  0.11400600  0.61464700  1
  C  291  1  0.95956100  0.09994000  0.63251400  1
  C  292  1  0.92332200  0.12232600  0.60634800  1
  C  293  1  0.88535200  0.11709100  0.61572900  1
  C  294  1  0.88323300  0.10272300  0.63313200  1
  C  295  1  0.92055000  0.09430200  0.64121900  1
  C  296  1  0.07725600  0.09288100  0.64116700  1
  C  297  1  0.11504600  0.10099800  0.63332100  1
  C  298  1  0.11373900  0.11561000  0.61610100  1
  C  299  1  0.07613600  0.12135300  0.60662500  1
  C  312  1  0.99885300  0.09203000  0.64295800  1
  C  313  1  0.99974300  0.12123400  0.60483000  1
  C  316  1  0.99732800  0.06490700  0.68261000  1
  C  319  1  0.99767900  0.15758700  0.69134800  1
  C  322  1  0.98635900  0.02372000  0.59906200  1
  C  325  1  0.84298100  0.09781700  0.64359300  1
  C  328  1  0.15502200  0.09562100  0.64387000  1
  C  331  1  0.99927800  0.25857400  0.10170600  1
  C  332  1  0.99945300  0.23997400  0.08860300  1
  C  333  1  0.99539100  0.26291700  0.05524900  1
  C  334  1  0.99752500  0.28187200  0.06779200  1
  C  335  1  0.99613000  0.30196300  0.05703600  1
  C  336  1  0.99083400  0.30357200  0.03456900  1
  C  337  1  0.98687300  0.28443400  0.02273200  1
  C  338  1  0.99023900  0.26441500  0.03280900  1
  C  339  1  0.00071400  0.21943500  0.09816000  1
  C  340  1  0.00095500  0.21711800  0.12053000  1
  C  341  1  0.99956400  0.23528200  0.13395500  1
  C  342  1  0.99923800  0.25577700  0.12435000  1
  C  343  1  0.03860800  0.29135800  0.09916600  1
  C  344  1  0.03848600  0.30908900  0.11342200  1
  C  345  1  0.96055900  0.30918100  0.11402000  1
  C  346  1  0.95957400  0.29131200  0.09995500  1
  C  347  1  0.92335000  0.31748400  0.12234100  1
  C  348  1  0.88537000  0.30811000  0.11710300  1
  C  349  1  0.88324200  0.29070900  0.10273400  1
  C  350  1  0.92055700  0.28260600  0.09432800  1
  C  351  1  0.07725800  0.28265900  0.09287300  1
  C  352  1  0.11505400  0.29049400  0.10099400  1
  C  353  1  0.11376200  0.30771700  0.11560300  1
  C  354  1  0.07616500  0.31719400  0.12135300  1
  C  367  1  0.99885900  0.28086800  0.09203700  1
  C  368  1  0.99977000  0.31899600  0.12124300  1
  C  371  1  0.99733800  0.24122100  0.06490600  1
  C  374  1  0.99768600  0.23246500  0.15758400  1
  C  377  1  0.98631000  0.32477800  0.02374200  1
  C  380  1  0.84297800  0.28025900  0.09782400  1
  C  383  1  0.15501900  0.27993800  0.09560600  1
  C  386  1  0.99931200  0.66527200  0.82213200  1
  C  387  1  0.99949300  0.68387300  0.83523000  1
  C  388  1  0.99540700  0.66094300  0.86859000  1
  C  389  1  0.99754400  0.64198300  0.85605400  1
  C  390  1  0.99615500  0.62189400  0.86681400  1
  C  391  1  0.99083700  0.62029200  0.88928100  1
  C  392  1  0.98687300  0.63943400  0.90111200  1
  C  393  1  0.99024600  0.65945200  0.89103000  1
  C  394  1  0.00077100  0.70441000  0.82566600  1
  C  395  1  0.00099500  0.70672100  0.80329700  1
  C  396  1  0.99960100  0.68855200  0.78987700  1
  C  397  1  0.99927500  0.66806000  0.79948700  1
  C  398  1  0.03862300  0.63248200  0.82468300  1
  C  399  1  0.03849300  0.61474600  0.81043300  1
  C  400  1  0.96056500  0.61466800  0.80983200  1
  C  401  1  0.95958600  0.63253800  0.82389300  1
  C  402  1  0.92335300  0.60636900  0.80150900  1
  C  403  1  0.88537600  0.61575000  0.80674400  1
  C  404  1  0.88325800  0.63315200  0.82111000  1
  C  405  1  0.92057500  0.64125200  0.82951600  1
  C  406  1  0.07727800  0.64117500  0.83097800  1
  C  407  1  0.11506700  0.63334300  0.82284400  1
  C  408  1  0.11376600  0.61611500  0.80824100  1
  C  409  1  0.07616600  0.60663300  0.80250300  1
  C  422  1  0.99887700  0.64297900  0.83180800  1
  C  423  1  0.99977000  0.60484700  0.80260900  1
  C  426  1  0.99735900  0.68263600  0.85892700  1
  C  429  1  0.99772300  0.69136200  0.76624700  1
  C  432  1  0.98630100  0.59909000  0.90011500  1
  C  435  1  0.84299900  0.64361200  0.82601600  1
  C  438  1  0.15503500  0.64390400  0.82821700  1
  C  441  1  0.49470900  0.61114400  0.76272700  1
  C  442  1  0.49267600  0.60384700  0.74119900  1
  C  443  1  0.49829300  0.56536200  0.75351100  1
  C  444  1  0.49920500  0.57199400  0.77528400  1
  C  445  1  0.50337100  0.55597700  0.79138500  1
  C  446  1  0.50786100  0.53403700  0.78624100  1
  C  447  1  0.50719900  0.52798600  0.76446000  1
  C  448  1  0.50190500  0.54339200  0.74834000  1
  C  449  1  0.48951300  0.61879300  0.72425100  1
  C  450  1  0.48903000  0.64089500  0.72834700  1
  C  451  1  0.49176800  0.64870000  0.74950800  1
  C  452  1  0.49405600  0.63365700  0.76643500  1
  C  453  1  0.45834900  0.59858600  0.79425200  1
  C  454  1  0.45938100  0.60688000  0.81543100  1
  C  455  1  0.53729500  0.60828000  0.81431400  1
  C  456  1  0.53715600  0.60043300  0.79295900  1
  C  457  1  0.57519700  0.61170300  0.82495000  1
  C  458  1  0.61272700  0.60657100  0.81501100  1
  C  459  1  0.61348800  0.59860200  0.79387000  1
  C  460  1  0.57564700  0.59628400  0.78293200  1
  C  461  1  0.41948900  0.59288700  0.78543300  1
  C  462  1  0.38247000  0.59460200  0.79722600  1
  C  463  1  0.38433600  0.60323600  0.81808200  1
  C  464  1  0.42221700  0.60947600  0.82697500  1
  C  477  1  0.49732900  0.59555000  0.78129800  1
  C  478  1  0.49861000  0.61255000  0.82624400  1
  C  481  1  0.49414800  0.58078800  0.73558300  1
  C  484  1  0.49281800  0.67221900  0.75345700  1
  C  487  1  0.51481500  0.51738300  0.80289800  1
  C  490  1  0.65274800  0.59103200  0.78408100  1
  C  493  1  0.34297300  0.58605200  0.78857100  1
  C  496  1  0.49468700  0.31270500  0.16111300  1
  C  497  1  0.49265500  0.32000300  0.18264100  1
  C  498  1  0.49828400  0.35848600  0.17032600  1
  C  499  1  0.49920500  0.35185200  0.14855500  1
  C  500  1  0.50337700  0.36786900  0.13245300  1
  C  501  1  0.50786400  0.38980900  0.13759600  1
  C  502  1  0.50719600  0.39586100  0.15937600  1
  C  503  1  0.50189900  0.38045600  0.17549700  1
  C  504  1  0.48948300  0.30505900  0.19959200  1
  C  505  1  0.48899600  0.28295700  0.19549700  1
  C  506  1  0.49174000  0.27514900  0.17433800  1
  C  507  1  0.49403400  0.29019100  0.15740900  1
  C  508  1  0.45834300  0.32526200  0.12958700  1
  C  509  1  0.45937400  0.31696700  0.10840800  1
  C  510  1  0.53728900  0.31557000  0.10952600  1
  C  511  1  0.53715000  0.32340900  0.13088500  1
  C  512  1  0.57519400  0.31214400  0.09889200  1
  C  513  1  0.61272400  0.31727600  0.10883300  1
  C  514  1  0.61347900  0.32524100  0.12997500  1
  C  515  1  0.57564100  0.32754500  0.14091800  1
  C  516  1  0.41948300  0.33097500  0.13839700  1
  C  517  1  0.38246100  0.32924300  0.12661100  1
  C  518  1  0.38432700  0.32059800  0.10575800  1
  C  519  1  0.42221400  0.31437200  0.09686200  1
  C  532  1  0.49732000  0.32829600  0.14254200  1
  C  533  1  0.49860700  0.31130000  0.09759400  1
  C  536  1  0.49413300  0.34306400  0.18825600  1
  C  539  1  0.49279000  0.25163000  0.17039000  1
  C  542  1  0.51481200  0.40646400  0.12093800  1
  C  545  1  0.65273900  0.33281400  0.13976400  1
  C  548  1  0.34296300  0.33779200  0.13526300  1
  C  551  1  0.49471800  0.16110600  0.61112500  1
  C  552  1  0.49268200  0.18263200  0.60382400  1
  C  553  1  0.49831200  0.17031300  0.56534200  1
  C  554  1  0.49923200  0.14854300  0.57197800  1
  C  555  1  0.50340500  0.13243900  0.55596300  1
  C  556  1  0.50788600  0.13758000  0.53402100  1
  C  557  1  0.50721100  0.15935900  0.52796700  1
  C  558  1  0.50194200  0.17548200  0.54337200  1
  C  559  1  0.48950700  0.19958400  0.61876700  1
  C  560  1  0.48901100  0.19548900  0.64087000  1
  C  561  1  0.49176500  0.17433200  0.64867800  1
  C  562  1  0.49405900  0.15740200  0.63363900  1
  C  563  1  0.45837700  0.12957600  0.59857000  1
  C  564  1  0.45941100  0.10839900  0.60687200  1
  C  565  1  0.53732600  0.10952200  0.60827300  1
  C  566  1  0.53718400  0.13087700  0.60042400  1
  C  567  1  0.57523100  0.09889100  0.61170200  1
  C  568  1  0.61276100  0.10883600  0.60657800  1
  C  569  1  0.61351500  0.12997200  0.59859500  1
  C  570  1  0.57567200  0.14091100  0.59628300  1
  C  571  1  0.41951700  0.13839000  0.59286700  1
  C  572  1  0.38249800  0.12659600  0.59458500  1
  C  573  1  0.38437000  0.10574000  0.60321900  1
  C  574  1  0.42225100  0.09685200  0.60946700  1
  C  587  1  0.49735400  0.14253200  0.59553400  1
  C  588  1  0.49864400  0.09758800  0.61254100  1
  C  591  1  0.49415700  0.18824600  0.58076300  1
  C  594  1  0.49280900  0.17038800  0.67219900  1
  C  597  1  0.51482400  0.12092000  0.51736800  1
  C  600  1  0.65276700  0.13976000  0.59101600  1
  C  603  1  0.34300000  0.13524800  0.58603800  1
  C  606  1  0.49468700  0.76273900  0.31272200  1
  C  607  1  0.49264500  0.74121300  0.32002500  1
  C  608  1  0.49828700  0.75353400  0.35850500  1
  C  609  1  0.49921100  0.77530400  0.35186700  1
  C  610  1  0.50339300  0.79140800  0.36788100  1
  C  611  1  0.50788000  0.78626900  0.38982200  1
  C  612  1  0.50720800  0.76449000  0.39587800  1
  C  613  1  0.50192700  0.74836700  0.38047300  1
  C  614  1  0.48946100  0.72425900  0.30508200  1
  C  615  1  0.48897500  0.72835100  0.28298000  1
  C  616  1  0.49172500  0.74950800  0.27516900  1
  C  617  1  0.49403100  0.76643900  0.29020600  1
  C  618  1  0.45834600  0.79426800  0.32527900  1
  C  619  1  0.45937400  0.81544500  0.31697900  1
  C  620  1  0.53728900  0.81432300  0.31556300  1
  C  621  1  0.53715000  0.79296800  0.32341600  1
  C  622  1  0.57519100  0.82495100  0.31211900  1
  C  623  1  0.61272100  0.81501700  0.31726400  1
  C  624  1  0.61347900  0.79388200  0.32525100  1
  C  625  1  0.57564100  0.78293900  0.32755900  1
  C  626  1  0.41948600  0.78545200  0.33098200  1
  C  627  1  0.38246700  0.79724200  0.32925700  1
  C  628  1  0.38433000  0.81810000  0.32062600  1
  C  629  1  0.42221400  0.82699700  0.31439900  1
  C  642  1  0.49732300  0.78131300  0.32830900  1
  C  643  1  0.49860400  0.82625600  0.31130000  1
  C  646  1  0.49412300  0.73560100  0.34308400  1
  C  649  1  0.49277500  0.75345100  0.25164800  1
  C  652  1  0.51484200  0.80292900  0.40647300  1
  C  655  1  0.65273600  0.78411100  0.33284600  1
  C  658  1  0.34296000  0.78858000  0.33778800  1
  C  661  1  0.49866300  0.32089900  0.76067600  1
  C  662  1  0.49882900  0.33333333  0.74163400  1
  C  663  1  0.49501300  0.36758800  0.76331900  1
  C  664  1  0.49701200  0.35570000  0.78267900  1
  C  665  1  0.49549100  0.36711800  0.80239800  1
  C  666  1  0.49011700  0.38959400  0.80328000  1
  C  667  1  0.48650500  0.40082300  0.78375800  1
  C  668  1  0.48998500  0.39008100  0.76407500  1
  C  669  1  0.49989800  0.32309400  0.72144300  1
  C  670  1  0.50001100  0.30066100  0.71990400  1
  C  671  1  0.49880100  0.28784400  0.73851200  1
  C  672  1  0.49858900  0.29816400  0.75868800  1
  C  673  1  0.53783400  0.32497200  0.79356200  1
  C  674  1  0.53771700  0.31248800  0.81257700  1
  C  675  1  0.45971600  0.31186300  0.81258200  1
  C  676  1  0.45893400  0.32421000  0.79348500  1
  C  677  1  0.42230000  0.30659000  0.82293300  1
  C  678  1  0.38446900  0.31419900  0.81510100  1
  C  679  1  0.38287700  0.32669500  0.79628900  1
  C  680  1  0.42010500  0.33089300  0.78536900  1
  C  681  1  0.57629400  0.33218400  0.78542300  1
  C  682  1  0.61387300  0.32809800  0.79609000  1
  C  683  1  0.61286900  0.31560400  0.81491500  1
  C  684  1  0.57540700  0.30762600  0.82284700  1
  C  697  1  0.49821600  0.33138500  0.78255700  1
  C  698  1  0.49892700  0.30491100  0.82264600  1
  C  701  1  0.49686400  0.35711700  0.74200600  1
  C  704  1  0.49662400  0.26412300  0.73633500  1
  C  707  1  0.48517800  0.40093400  0.82418100  1
  C  710  1  0.34359500  0.33680800  0.78920400  1
  C  713  1  0.65298200  0.33822500  0.78872600  1
  C  716  1  0.49864100  0.60294100  0.16317200  1
  C  717  1  0.49880400  0.59047500  0.18221500  1
  C  718  1  0.49498600  0.55625200  0.16053000  1
  C  719  1  0.49699400  0.56814300  0.14116900  1
  C  720  1  0.49549100  0.55672200  0.12144900  1
  C  721  1  0.49009900  0.53424800  0.12056800  1
  C  722  1  0.48646200  0.52301900  0.14009000  1
  C  723  1  0.48996000  0.53375900  0.15977300  1
  C  724  1  0.49988200  0.60074600  0.20240700  1
  C  725  1  0.49995000  0.62318000  0.20394600  1
  C  726  1  0.49876400  0.63599700  0.18533800  1
  C  727  1  0.49856700  0.62567600  0.16516200  1
  C  728  1  0.53782100  0.59887000  0.13029000  1
  C  729  1  0.53770800  0.61135500  0.11127500  1
  C  730  1  0.45970700  0.61197700  0.11126200  1
  C  731  1  0.45892200  0.59963200  0.13036100  1
  C  732  1  0.42229400  0.61725100  0.10090900  1
  C  733  1  0.38446600  0.60962400  0.10873000  1
  C  734  1  0.38286100  0.59714800  0.12755400  1
  C  735  1  0.42008900  0.59294900  0.13847400  1
  C  736  1  0.57627800  0.59165800  0.13843100  1
  C  737  1  0.61386000  0.59574700  0.12776900  1
  C  738  1  0.61286000  0.60824200  0.10894400  1
  C  739  1  0.57540100  0.61622000  0.10100900  1
  C  752  1  0.49819800  0.59245700  0.14129100  1
  C  753  1  0.49892100  0.61893200  0.10120400  1
  C  756  1  0.49684900  0.56672400  0.18184300  1
  C  759  1  0.49659900  0.65971800  0.18751500  1
  C  762  1  0.48515900  0.52290800  0.09966700  1
  C  765  1  0.34357900  0.58704400  0.13465000  1
  C  768  1  0.65297000  0.58562200  0.13513300  1
  C  771  1  0.49862900  0.76066700  0.60295800  1
  C  772  1  0.49880100  0.74162300  0.59049400  1
  C  773  1  0.49501000  0.76330800  0.55626800  1
  C  774  1  0.49701200  0.78266700  0.56815800  1
  C  775  1  0.49550900  0.80238700  0.55673700  1
  C  776  1  0.49012900  0.80326900  0.53426200  1
  C  777  1  0.48651100  0.78374700  0.52303200  1
  C  778  1  0.49000300  0.76406300  0.53377300  1
  C  779  1  0.49987000  0.72143300  0.60076400  1
  C  780  1  0.49994700  0.71989500  0.62319800  1
  C  781  1  0.49874900  0.73850300  0.63601500  1
  C  782  1  0.49854600  0.75867900  0.62569300  1
  C  783  1  0.53781800  0.79354700  0.59889200  1
  C  784  1  0.53770100  0.81256500  0.61137500  1
  C  785  1  0.45969800  0.81257700  0.61198900  1
  C  786  1  0.45891900  0.79347900  0.59964100  1
  C  787  1  0.42228200  0.82292300  0.61726600  1
  C  788  1  0.38445000  0.81509200  0.60965000  1
  C  789  1  0.38285200  0.79627100  0.59717200  1
  C  790  1  0.42009200  0.78537500  0.59294400  1
  C  791  1  0.57627800  0.78540000  0.59169100  1
  C  792  1  0.61385700  0.79606900  0.59577600  1
  C  793  1  0.61285600  0.81489000  0.60827300  1
  C  794  1  0.57539100  0.82282700  0.61624600  1
  C  807  1  0.49819800  0.78254800  0.59247200  1
  C  808  1  0.49890900  0.82263300  0.61895100  1
  C  811  1  0.49686700  0.74199400  0.56674000  1
  C  814  1  0.49659300  0.73632900  0.65973600  1
  C  817  1  0.48518700  0.82417200  0.52292500  1
  C  820  1  0.34356100  0.78915500  0.58708800  1
  C  823  1  0.65296100  0.78870000  0.58564800  1
  C  826  1  0.49864100  0.16319400  0.32090000  1
  C  827  1  0.49881000  0.18223500  0.33336800  1
  C  828  1  0.49502600  0.16054500  0.36759100  1
  C  829  1  0.49704600  0.14118800  0.35569900  1
  C  830  1  0.49556500  0.12146600  0.36711600  1
  C  831  1  0.49015400  0.12058100  0.38958800  1
  C  832  1  0.48652000  0.14010100  0.40082100  1
  C  833  1  0.49000600  0.15978500  0.39008400  1
  C  834  1  0.49986100  0.20242700  0.32309800  1
  C  835  1  0.49993400  0.20396900  0.30066600  1
  C  836  1  0.49874600  0.18536300  0.28784600  1
  C  837  1  0.49855200  0.16518500  0.29816700  1
  C  838  1  0.53784600  0.13031800  0.32495800  1
  C  839  1  0.53773500  0.11130300  0.31247200  1
  C  840  1  0.45973200  0.11128300  0.31186100  1
  C  841  1  0.45894600  0.13037500  0.32421600  1
  C  842  1  0.42231900  0.10093300  0.30658600  1
  C  843  1  0.38448700  0.10875500  0.31420800  1
  C  844  1  0.38288300  0.12757200  0.32669300  1
  C  845  1  0.42012000  0.13847300  0.33092100  1
  C  846  1  0.57630600  0.13846900  0.33215400  1
  C  847  1  0.61388500  0.12779500  0.32808000  1
  C  848  1  0.61288700  0.10897800  0.31557500  1
  C  849  1  0.57543100  0.10104600  0.30759400  1
  C  862  1  0.49822500  0.14131100  0.33138400  1
  C  863  1  0.49894600  0.10123100  0.30489800  1
  C  866  1  0.49686700  0.18186100  0.35712100  1
  C  869  1  0.49658700  0.18754000  0.26412500  1
  C  872  1  0.48520500  0.09967600  0.40092200  1
  C  875  1  0.34359500  0.13467500  0.33678600  1
  C  878  1  0.65298500  0.13515500  0.33822100  1
  C  881  1  0.03266700  0.19173100  0.22427700  1
  C  883  1  0.05002300  0.19235200  0.18708300  1
  C  884  1  0.03596200  0.21360500  0.18547400  1
  C  886  1  0.01837300  0.21320300  0.22287900  1
  C  895  1  0.03270300  0.73210100  0.69955900  1
  C  897  1  0.05007000  0.73147300  0.73675100  1
  C  898  1  0.03600100  0.71021900  0.73835700  1
  C  900  1  0.01840400  0.71062900  0.70095400  1
  C  909  1  0.03264800  0.69958400  0.19173400  1
  C  911  1  0.05000500  0.73677600  0.19235800  1
  C  912  1  0.03593700  0.73838600  0.21361200  1
  C  914  1  0.01834900  0.70098100  0.21320500  1
  C  923  1  0.03268800  0.22425600  0.73211900  1
  C  925  1  0.05001600  0.18705900  0.73147800  1
  C  926  1  0.03596100  0.18546600  0.71022200  1
  C  928  1  0.01839700  0.22287400  0.71064600  1
  C  937  1  0.53056900  0.69379500  0.72628800  1
  C  939  1  0.54703800  0.69488000  0.68896500  1
  C  940  1  0.53318400  0.71620100  0.68768700  1
  C  942  1  0.51626200  0.71528700  0.72519300  1
  C  951  1  0.53054500  0.23006200  0.19756300  1
  C  953  1  0.54702000  0.22898600  0.23488700  1
  C  954  1  0.53317500  0.20766500  0.23617100  1
  C  956  1  0.51624300  0.20856800  0.19866600  1
  C  965  1  0.53050800  0.19757200  0.69377300  1
  C  967  1  0.54700800  0.23489300  0.69486800  1
  C  968  1  0.53316500  0.23616900  0.71619100  1
  C  970  1  0.51623100  0.19866400  0.71527200  1
  C  979  1  0.53048900  0.72626700  0.23007900  1
  C  981  1  0.54695500  0.68894300  0.22899100  1
  C  982  1  0.53314100  0.68766800  0.20766600  1
  C  984  1  0.51620700  0.72517300  0.20858000  1
  C  993  1  0.71352500  0.12700800  0.31497200  1
  C  995  1  0.77216500  0.10550800  0.32393800  1
  C  996  1  0.77672900  0.09941800  0.30232900  1
  C  998  1  0.71695300  0.12040700  0.29324900  1
  C  1007  1  0.71350700  0.79684600  0.60889300  1
  C  1009  1  0.77219000  0.81830700  0.59990800  1
  C  1010  1  0.77673500  0.82443500  0.62150600  1
  C  1012  1  0.71692500  0.80348200  0.63060700  1
  C  1021  1  0.71346700  0.60887600  0.12694800  1
  C  1023  1  0.77218600  0.59991200  0.10550300  1
  C  1024  1  0.77674400  0.62151700  0.09940000  1
  C  1026  1  0.71692200  0.63060000  0.12034700  1
  C  1035  1  0.71349700  0.31498000  0.79691600  1
  C  1037  1  0.77216800  0.32396700  0.81838600  1
  C  1038  1  0.77674700  0.30236400  0.82448800  1
  C  1040  1  0.71694300  0.29326100  0.80353300  1
  C  1049  1  0.28369100  0.79831800  0.31397400  1
  C  1051  1  0.22051200  0.81621600  0.32234200  1
  C  1052  1  0.21907600  0.82506000  0.30158400  1
  C  1054  1  0.28336000  0.80773600  0.29325300  1
  C  1063  1  0.28369500  0.12553400  0.60984600  1
  C  1065  1  0.22047400  0.10767100  0.60149300  1
  C  1066  1  0.21906500  0.09880800  0.62224300  1
  C  1068  1  0.28338700  0.11609900  0.63055800  1
  C  1077  1  0.28371900  0.31399200  0.12547700  1
  C  1079  1  0.22049600  0.32233600  0.10760300  1
  C  1080  1  0.21905800  0.30157000  0.09877500  1
  C  1082  1  0.28335500  0.29325700  0.11609200  1
  C  1091  1  0.28371700  0.60985400  0.79834000  1
  C  1093  1  0.22051300  0.60150800  0.81622500  1
  C  1094  1  0.21908000  0.62227500  0.82505200  1
  C  1096  1  0.28338700  0.63058200  0.80774100  1
  C  1105  1  0.28372000  0.79566300  0.61125100  1
  C  1107  1  0.22230900  0.81566000  0.60420900  1
  C  1108  1  0.21950300  0.82136800  0.62599300  1
  C  1110  1  0.28205200  0.80196100  0.63310900  1
  C  1119  1  0.28372200  0.12819100  0.31263400  1
  C  1121  1  0.22226700  0.10823000  0.31966900  1
  C  1122  1  0.21947900  0.10250700  0.29788800  1
  C  1124  1  0.28207300  0.12187700  0.29078100  1
  C  1133  1  0.28376000  0.31265800  0.79574100  1
  C  1135  1  0.22230300  0.31966500  0.81571600  1
  C  1136  1  0.21949400  0.29787300  0.82139000  1
  C  1138  1  0.28206900  0.29078800  0.80199600  1
  C  1147  1  0.28374300  0.61119600  0.12810800  1
  C  1149  1  0.22230900  0.60417700  0.10812300  1
  C  1150  1  0.21950600  0.62596800  0.10243600  1
  C  1152  1  0.28207700  0.63305900  0.12183100  1
  C  1161  1  0.71229300  0.12873600  0.61385800  1
  C  1163  1  0.77534300  0.11190400  0.60327800  1
  C  1164  1  0.77778500  0.10137600  0.62320100  1
  C  1166  1  0.71372500  0.11766300  0.63373600  1
  C  1175  1  0.71229300  0.79511000  0.31000500  1
  C  1177  1  0.77539200  0.81190300  0.32056600  1
  C  1178  1  0.77780300  0.82245300  0.30065500  1
  C  1180  1  0.71369800  0.80620200  0.29013900  1
  C  1189  1  0.71223800  0.61386400  0.79516200  1
  C  1191  1  0.77534600  0.60329500  0.81194700  1
  C  1192  1  0.77780000  0.62321800  0.82247400  1
  C  1194  1  0.71370700  0.63374700  0.80622300  1
  C  1203  1  0.71224700  0.30998900  0.12868800  1
  C  1205  1  0.77533100  0.32057400  0.11189400  1
  C  1206  1  0.77778500  0.30065800  0.10135400  1
  C  1208  1  0.71369500  0.29011700  0.11760600  1
  C  1217  1  0.01211200  0.93784100  0.32269000  1
  C  1219  1  0.97381300  0.97010400  0.32871400  1
  C  1220  1  0.99351900  0.98007200  0.31122500  1
  C  1222  1  0.03273400  0.94780000  0.30525000  1
  C  1231  1  0.01209100  0.98600300  0.60116900  1
  C  1233  1  0.97381000  0.95373400  0.59514200  1
  C  1234  1  0.99350400  0.94377300  0.61263900  1
  C  1236  1  0.03269400  0.97604900  0.61862300  1
  C  1245  1  0.01203800  0.60117900  0.93783400  1
  C  1247  1  0.97378600  0.59513600  0.97010900  1
  C  1248  1  0.99346100  0.61263900  0.98006900  1
  C  1250  1  0.03264200  0.61862900  0.94778800  1
  C  1259  1  0.01206500  0.32269500  0.98602500  1
  C  1261  1  0.97381300  0.32873500  0.95375000  1
  C  1262  1  0.99351900  0.31124600  0.94378300  1
  C  1264  1  0.03269300  0.30525600  0.97606700  1
  C  1273  1  0.51137200  0.43839200  0.82171500  1
  C  1275  1  0.47308100  0.47069600  0.82738400  1
  C  1276  1  0.49253800  0.48037200  0.80966600  1
  C  1278  1  0.53172700  0.44805100  0.80403000  1
  C  1287  1  0.51135000  0.48544800  0.10213100  1
  C  1289  1  0.47308100  0.45314000  0.09644500  1
  C  1290  1  0.49249700  0.44347300  0.11418200  1
  C  1292  1  0.53167500  0.47579500  0.11982900  1
  C  1301  1  0.51139000  0.10212300  0.43838500  1
  C  1303  1  0.47311800  0.09643100  0.47069000  1
  C  1304  1  0.49251000  0.11417600  0.48035700  1
  C  1306  1  0.53170600  0.11982300  0.44804000  1
  C  1315  1  0.51140600  0.82173000  0.48546800  1
  C  1317  1  0.47315800  0.82743400  0.45315500  1
  C  1318  1  0.49257400  0.80970000  0.44348200  1
  C  1320  1  0.53173600  0.80403700  0.47580800  1
  N  882  1  0.04806400  0.18234400  0.20633700  1
  N  885  1  0.02091600  0.22312400  0.20346800  1
  N  888  1  0.00270700  0.22431700  0.23963100  1
  N  891  1  0.03777700  0.22429300  0.16560000  1
  N  893  1  0.03271100  0.17915500  0.24307800  1
  N  896  1  0.04810800  0.74148500  0.71749800  1
  N  899  1  0.02094800  0.70070700  0.72036200  1
  N  902  1  0.00272600  0.69952200  0.68420100  1
  N  905  1  0.03781600  0.69953000  0.75822700  1
  N  907  1  0.03274300  0.74468200  0.68076000  1
  N  910  1  0.04805400  0.71752400  0.18235000  1
  N  913  1  0.02088900  0.72039000  0.22312800  1
  N  916  1  0.00268000  0.68422800  0.22431700  1
  N  919  1  0.03776000  0.75825600  0.22430100  1
  N  921  1  0.03271900  0.68078000  0.17916000  1
  N  924  1  0.04807500  0.20630900  0.74149700  1
  N  927  1  0.02092900  0.20346800  0.70071300  1
  N  930  1  0.00274700  0.23963500  0.69953900  1
  N  933  1  0.03777200  0.16559900  0.69952300  1
  N  935  1  0.03275700  0.24305200  0.74470500  1
  N  938  1  0.54558500  0.68465700  0.70812700  1
  N  941  1  0.51855900  0.72548400  0.70589700  1
  N  944  1  0.50117900  0.72624300  0.74219200  1
  N  947  1  0.53582600  0.72731500  0.66804100  1
  N  949  1  0.53218000  0.68119100  0.74510200  1
  N  952  1  0.54555700  0.23920600  0.21572200  1
  N  955  1  0.51854400  0.19837500  0.21796400  1
  N  958  1  0.50115100  0.19760900  0.18167100  1
  N  961  1  0.53581400  0.19655700  0.25582000  1
  N  963  1  0.53215200  0.24265900  0.17874700  1
  N  966  1  0.54554500  0.21573100  0.68464200  1
  N  969  1  0.51854100  0.21795700  0.72547400  1
  N  972  1  0.50114500  0.18166400  0.72622600  1
  N  975  1  0.53583800  0.25580800  0.72731100  1
  N  977  1  0.53215500  0.17875700  0.68117600  1
  N  980  1  0.54550800  0.70810600  0.23921400  1
  N  983  1  0.51852200  0.70588000  0.19837900  1
  N  986  1  0.50113900  0.74217500  0.19762300  1
  N  989  1  0.53581100  0.66802800  0.19654700  1
  N  991  1  0.53212800  0.74508200  0.24267600  1
  N  994  1  0.74148400  0.11924500  0.32923500  1
  N  997  1  0.74861300  0.10702900  0.28810200  1
  N  1000  1  0.69100200  0.12644100  0.27737100  1
  N  1003  1  0.80873400  0.08604500  0.29470300  1
  N  1005  1  0.68535700  0.14233300  0.32303600  1
  N  1008  1  0.74149300  0.80457300  0.59462500  1
  N  1011  1  0.74859400  0.81685900  0.63573900  1
  N  1014  1  0.69094000  0.79749600  0.64648800  1
  N  1017  1  0.80875900  0.83780300  0.62911900  1
  N  1019  1  0.68531700  0.78152700  0.60084400  1
  N  1022  1  0.74148400  0.59462000  0.11922900  1
  N  1025  1  0.74860400  0.63574300  0.10698400  1
  N  1028  1  0.69094000  0.64647700  0.12634900  1
  N  1031  1  0.80878300  0.62914200  0.08604800  1
  N  1033  1  0.68533900  0.60081700  0.14229300  1
  N  1036  1  0.74148700  0.32924800  0.80464200  1
  N  1039  1  0.74862200  0.28812900  0.81690400  1
  N  1042  1  0.69097400  0.27737700  0.79753500  1
  N  1045  1  0.80878600  0.29474800  0.83784700  1
  N  1047  1  0.68535400  0.32303000  0.78157200  1
  N  1050  1  0.25208900  0.80297100  0.32750000  1
  N  1053  1  0.25083100  0.82055300  0.28813200  1
  N  1056  1  0.31299700  0.80467200  0.27830700  1
  N  1059  1  0.18668100  0.83821800  0.29409800  1
  N  1061  1  0.31223900  0.78281700  0.32119100  1
  N  1064  1  0.25206300  0.12090700  0.59633000  1
  N  1067  1  0.25085200  0.10328800  0.63568400  1
  N  1070  1  0.31306500  0.11913100  0.64548900  1
  N  1073  1  0.18666200  0.08565600  0.62973400  1
  N  1075  1  0.31226700  0.14101900  0.60262600  1
  N  1078  1  0.25208000  0.32750200  0.12084200  1
  N  1081  1  0.25081800  0.28812400  0.10328500  1
  N  1084  1  0.31300000  0.27831400  0.11915500  1
  N  1087  1  0.18665200  0.29407300  0.08563000  1
  N  1089  1  0.31219900  0.32121100  0.14101100  1
  N  1092  1  0.25208000  0.59634500  0.80297600  1
  N  1095  1  0.25085200  0.63571800  0.82055000  1
  N  1098  1  0.31304600  0.64551900  0.80468500  1
  N  1101  1  0.18667400  0.62977600  0.83819600  1
  N  1103  1  0.31221500  0.60263300  0.78281700  1
  N  1106  1  0.25365300  0.80280800  0.59786300  1
  N  1109  1  0.24969100  0.81437500  0.63934600  1
  N  1112  1  0.31019400  0.79634800  0.64810000  1
  N  1115  1  0.18648600  0.83317800  0.63477600  1
  N  1117  1  0.31219600  0.78105400  0.60232300  1
  N  1120  1  0.25362600  0.12107100  0.32601500  1
  N  1123  1  0.24970300  0.10946900  0.28454200  1
  N  1126  1  0.31025600  0.12745400  0.27579600  1
  N  1129  1  0.18646700  0.09069400  0.28910500  1
  N  1131  1  0.31222400  0.14278400  0.32156100  1
  N  1134  1  0.25365200  0.32602700  0.80287500  1
  N  1137  1  0.24970100  0.28453300  0.81439600  1
  N  1140  1  0.31023100  0.27580800  0.79638100  1
  N  1143  1  0.18648600  0.28907400  0.83319700  1
  N  1145  1  0.31217100  0.32160200  0.78111100  1
  N  1148  1  0.25364100  0.59782300  0.12097900  1
  N  1151  1  0.24971100  0.63930900  0.10942700  1
  N  1154  1  0.31024400  0.64804100  0.12743800  1
  N  1157  1  0.18647800  0.63476500  0.09064600  1
  N  1159  1  0.31216800  0.60225800  0.14273700  1
  N  1162  1  0.74331900  0.12534100  0.59961100  1
  N  1165  1  0.74667900  0.10464800  0.63738900  1
  N  1168  1  0.68477500  0.11928500  0.64926500  1
  N  1171  1  0.81108000  0.08818200  0.62938000  1
  N  1173  1  0.68306900  0.14452400  0.60813900  1
  N  1176  1  0.74335300  0.79847700  0.32424100  1
  N  1179  1  0.74665700  0.81921100  0.28648300  1
  N  1182  1  0.68470100  0.80461600  0.27463100  1
  N  1185  1  0.81109900  0.83564300  0.29447100  1
  N  1187  1  0.68304400  0.77933800  0.31573100  1
  N  1190  1  0.74330100  0.59963000  0.79852200  1
  N  1193  1  0.74667900  0.63740100  0.81922300  1
  N  1196  1  0.68474100  0.64927000  0.80462600  1
  N  1199  1  0.81111100  0.62939600  0.83565800  1
  N  1201  1  0.68306300  0.60815700  0.77934300  1
  N  1204  1  0.74330400  0.32422800  0.12533300  1
  N  1207  1  0.74666400  0.28647100  0.10460100  1
  N  1210  1  0.68472600  0.27459600  0.11919400  1
  N  1213  1  0.81110500  0.29448200  0.08817800  1
  N  1215  1  0.68305700  0.31569000  0.14450000  1
  N  1218  1  0.98378800  0.94958200  0.33365500  1
  N  1221  1  0.02183700  0.96830200  0.30031100  1
  N  1224  1  0.06153900  0.93815800  0.29287200  1
  N  1227  1  0.98283600  0.00062400  0.30331400  1
  N  1229  1  0.01823100  0.91652300  0.32981100  1
  N  1232  1  0.98378200  0.97425700  0.59020100  1
  N  1235  1  0.02180500  0.95554800  0.62356000  1
  N  1238  1  0.06149400  0.98569700  0.63100100  1
  N  1241  1  0.98282400  0.92322000  0.62055000  1
  N  1243  1  0.01820500  0.00732100  0.59405100  1
  N  1246  1  0.98374200  0.59020400  0.94958200  1
  N  1249  1  0.02175900  0.62356100  0.96829300  1
  N  1252  1  0.06143800  0.63100900  0.93814100  1
  N  1255  1  0.98279300  0.62053300  0.00062900  1
  N  1257  1  0.01814100  0.59406700  0.91651200  1
  N  1260  1  0.98375100  0.33366200  0.97428100  1
  N  1263  1  0.02181000  0.30032300  0.95556200  1
  N  1266  1  0.06147500  0.29286900  0.98571600  1
  N  1269  1  0.98281800  0.30331900  0.92323900  1
  N  1271  1  0.01815800  0.32980600  0.00734900  1
  N  1274  1  0.48316400  0.45027000  0.83260600  1
  N  1277  1  0.52074000  0.46846300  0.79882200  1
  N  1280  1  0.56039100  0.43822100  0.79171200  1
  N  1283  1  0.48196900  0.50084500  0.80157700  1
  N  1285  1  0.51734000  0.41717600  0.82907900  1
  N  1288  1  0.48317000  0.47356800  0.09122700  1
  N  1291  1  0.52068700  0.45537900  0.12503400  1
  N  1294  1  0.56033300  0.48562400  0.13215100  1
  N  1297  1  0.48194400  0.42299100  0.12225400  1
  N  1299  1  0.51732100  0.50666500  0.09477100  1
  N  1302  1  0.48320700  0.09121700  0.45026300  1
  N  1305  1  0.52070300  0.12502800  0.46845200  1
  N  1308  1  0.56036000  0.13214800  0.43821200  1
  N  1311  1  0.48195300  0.12223600  0.50084200  1
  N  1313  1  0.51735800  0.09477100  0.41716500  1
  N  1316  1  0.48322200  0.83263600  0.47358900  1
  N  1319  1  0.52074600  0.79883900  0.45539300  1
  N  1322  1  0.56036600  0.79170000  0.48564100  1
  N  1325  1  0.48199000  0.80161800  0.42300900  1
  N  1327  1  0.51735800  0.82907600  0.50669100  1
