# generated using pymatgen
data_H34C57(N3O4)2
_symmetry_space_group_name_H-M   'P 1'
_cell_length_a   59.23040000
_cell_length_b   74.79290000
_cell_length_c   74.79290000
_cell_angle_alpha   90.00000000
_cell_angle_beta   90.00000000
_cell_angle_gamma   90.00000000
_symmetry_Int_Tables_number   1
_chemical_formula_structural   H34C57(N3O4)2
_chemical_formula_sum   'H1088 C1824 N192 O256'
_cell_volume   331333.54804014
_cell_formula_units_Z   32
loop_
 _symmetry_equiv_pos_site_id
 _symmetry_equiv_pos_as_xyz
  1  'x, y, z'
loop_
 _atom_site_type_symbol
 _atom_site_label
 _atom_site_symmetry_multiplicity
 _atom_site_fract_x
 _atom_site_fract_y
 _atom_site_fract_z
 _atom_site_occupancy
  H  25  1  0.79783900  0.17421400  0.41334700  1
  H  26  1  0.80165100  0.14263800  0.40925300  1
  H  27  1  0.81330700  0.11054000  0.40292500  1
  H  28  1  0.83182500  0.08270600  0.39669100  1
  H  29  1  0.89034200  0.11074500  0.37991600  1
  H  30  1  0.86366500  0.18211800  0.39242400  1
  H  31  1  0.84874700  0.14570800  0.35256600  1
  H  32  1  0.90644000  0.16235100  0.32337400  1
  H  33  1  0.92786500  0.16354800  0.35044200  1
  H  34  1  0.88528500  0.14115500  0.42247300  1
  H  35  1  0.94410000  0.16190800  0.38167700  1
  H  36  1  0.95274900  0.15741900  0.41273000  1
  H  70  1  0.29794200  0.32182100  0.56560100  1
  H  71  1  0.30164800  0.35339700  0.56976900  1
  H  72  1  0.31322800  0.38551700  0.57611800  1
  H  73  1  0.33167300  0.41337200  0.58237900  1
  H  74  1  0.39026300  0.38540600  0.59911900  1
  H  75  1  0.36379100  0.31401000  0.58651400  1
  H  76  1  0.34872600  0.35036800  0.62643300  1
  H  77  1  0.40643700  0.33379900  0.65564800  1
  H  78  1  0.42788800  0.33265100  0.62859100  1
  H  79  1  0.38530400  0.35499500  0.55654400  1
  H  80  1  0.44416600  0.33439400  0.59737400  1
  H  81  1  0.45281800  0.33888300  0.56632100  1
  H  115  1  0.04727500  0.82387100  0.91138100  1
  H  116  1  0.05308600  0.82880300  0.88012100  1
  H  117  1  0.06689500  0.83595300  0.84865800  1
  H  118  1  0.08705000  0.84333300  0.82186700  1
  H  119  1  0.14267300  0.86111300  0.85280000  1
  H  120  1  0.11217600  0.84516700  0.92247500  1
  H  121  1  0.09891400  0.88586500  0.88720100  1
  H  122  1  0.15531600  0.91502200  0.90649700  1
  H  123  1  0.17703600  0.88811800  0.90757200  1
  H  124  1  0.13661800  0.81656000  0.88141900  1
  H  125  1  0.19380900  0.85700800  0.90544700  1
  H  126  1  0.20304800  0.82615900  0.90022700  1
  H  160  1  0.54737300  0.67230200  0.06777500  1
  H  161  1  0.55325300  0.66748100  0.09904100  1
  H  162  1  0.56713100  0.66045900  0.13050300  1
  H  163  1  0.58729100  0.65308000  0.15729400  1
  H  164  1  0.64283600  0.63516100  0.12635200  1
  H  165  1  0.61225700  0.65098000  0.05666300  1
  H  166  1  0.59901200  0.61040800  0.09192300  1
  H  167  1  0.65538500  0.58120600  0.07264400  1
  H  168  1  0.67714900  0.60808700  0.07160100  1
  H  169  1  0.63676300  0.67970400  0.09763600  1
  H  170  1  0.69396100  0.63919300  0.07372900  1
  H  171  1  0.70319300  0.67005800  0.07885300  1
  H  205  1  0.70287200  0.32552700  0.39893500  1
  H  206  1  0.69419600  0.35657400  0.40341300  1
  H  207  1  0.67792600  0.38778000  0.40508000  1
  H  208  1  0.65648200  0.41483500  0.40389800  1
  H  209  1  0.59869100  0.38558700  0.38758100  1
  H  210  1  0.63532100  0.31568400  0.38296400  1
  H  211  1  0.64013400  0.35827200  0.35256800  1
  H  212  1  0.58158000  0.34133900  0.32467300  1
  H  213  1  0.56317900  0.33509600  0.35256000  1
  H  214  1  0.61403300  0.34539900  0.42394800  1
  H  215  1  0.55177300  0.32860300  0.38469800  1
  H  216  1  0.54830800  0.32419400  0.41625600  1
  H  250  1  0.20298900  0.17076200  0.58027000  1
  H  251  1  0.19429900  0.13972100  0.57576300  1
  H  252  1  0.17799300  0.10852300  0.57401300  1
  H  253  1  0.15652600  0.08147800  0.57514700  1
  H  254  1  0.09875600  0.11073300  0.59150500  1
  H  255  1  0.13543400  0.18061100  0.59622500  1
  H  256  1  0.14020900  0.13797700  0.62658500  1
  H  257  1  0.08161900  0.15482600  0.65448300  1
  H  258  1  0.06323800  0.16111800  0.62660000  1
  H  259  1  0.11408800  0.15085700  0.55520100  1
  H  260  1  0.05181600  0.16760000  0.59446400  1
  H  261  1  0.04832300  0.17198200  0.56290400  1
  H  295  1  0.45275600  0.66065100  0.90944600  1
  H  296  1  0.44235100  0.66379200  0.87857400  1
  H  297  1  0.42459300  0.66406200  0.84797100  1
  H  298  1  0.40195900  0.66119000  0.82150200  1
  H  299  1  0.34689600  0.64285000  0.85274800  1
  H  300  1  0.38679300  0.64241700  0.92183000  1
  H  301  1  0.39041400  0.61068100  0.88010600  1
  H  302  1  0.33327700  0.58220400  0.89903300  1
  H  303  1  0.31441000  0.60989500  0.90518000  1
  H  304  1  0.36255900  0.68186400  0.89151900  1
  H  305  1  0.30236200  0.64197000  0.91123200  1
  H  306  1  0.29803300  0.67356500  0.91473000  1
  H  340  1  0.95277500  0.83570900  0.06955400  1
  H  341  1  0.94239500  0.83252000  0.10042600  1
  H  342  1  0.92463000  0.83213400  0.13103200  1
  H  343  1  0.90197800  0.83490300  0.15750600  1
  H  344  1  0.84686100  0.85318500  0.12629100  1
  H  345  1  0.88674300  0.85381400  0.05720600  1
  H  346  1  0.89029600  0.88550800  0.09892900  1
  H  347  1  0.83306700  0.91389700  0.08003900  1
  H  348  1  0.81427000  0.88617400  0.07390100  1
  H  349  1  0.86269200  0.81429100  0.08740700  1
  H  350  1  0.80229100  0.85407900  0.06787400  1
  H  351  1  0.79810200  0.82248300  0.06427700  1
  H  385  1  0.19904500  0.82654000  0.56583600  1
  H  386  1  0.19307300  0.85782500  0.57046600  1
  H  387  1  0.17917500  0.88927200  0.57732600  1
  H  388  1  0.15897700  0.91610600  0.58449500  1
  H  389  1  0.10337800  0.88526300  0.60247300  1
  H  390  1  0.13419200  0.81544100  0.58721200  1
  H  391  1  0.14723600  0.85098500  0.62761700  1
  H  392  1  0.09087500  0.83164600  0.65679000  1
  H  393  1  0.06918300  0.83044900  0.62988300  1
  H  394  1  0.10954800  0.85621900  0.55818400  1
  H  395  1  0.05246600  0.83230800  0.59879400  1
  H  396  1  0.04322600  0.83723200  0.56790000  1
  H  430  1  0.69890500  0.66988500  0.41337200  1
  H  431  1  0.69304800  0.63860000  0.40864900  1
  H  432  1  0.67922100  0.60713000  0.40176100  1
  H  433  1  0.65907400  0.58027800  0.39459500  1
  H  434  1  0.60340800  0.61105500  0.37663900  1
  H  435  1  0.63402600  0.68089900  0.39199700  1
  H  436  1  0.64723200  0.64540900  0.35151600  1
  H  437  1  0.59084900  0.66467600  0.32231400  1
  H  438  1  0.56912700  0.66582400  0.34920800  1
  H  439  1  0.60951000  0.64010900  0.42092600  1
  H  440  1  0.55236500  0.66387300  0.38028500  1
  H  441  1  0.54313000  0.65895800  0.41118000  1
  H  475  1  0.94927600  0.17347900  0.06949300  1
  H  476  1  0.94215700  0.16976600  0.10073800  1
  H  477  1  0.92747000  0.16317700  0.13202000  1
  H  478  1  0.90682700  0.15568200  0.15857800  1
  H  479  1  0.85313600  0.13553700  0.12695600  1
  H  480  1  0.88597400  0.14977900  0.05749100  1
  H  481  1  0.89927200  0.11078100  0.09589800  1
  H  482  1  0.84635100  0.07927400  0.07434100  1
  H  483  1  0.82329500  0.10550500  0.07114500  1
  H  484  1  0.85774100  0.17924400  0.09641800  1
  H  485  1  0.80482300  0.13585500  0.07141900  1
  H  486  1  0.79351300  0.16650900  0.07484500  1
  H  520  1  0.44929500  0.32283200  0.90946900  1
  H  521  1  0.44208600  0.32642800  0.87822400  1
  H  522  1  0.42731300  0.33289900  0.84694700  1
  H  523  1  0.40664600  0.34037700  0.82039400  1
  H  524  1  0.35300800  0.36058500  0.85203400  1
  H  525  1  0.38597600  0.34649000  0.92149400  1
  H  526  1  0.39917000  0.38538200  0.88310900  1
  H  527  1  0.34624500  0.41685700  0.90470400  1
  H  528  1  0.32319200  0.39062000  0.90786800  1
  H  529  1  0.35770500  0.31689000  0.88261900  1
  H  530  1  0.30473200  0.36026000  0.90758000  1
  H  531  1  0.29347100  0.32958900  0.90419800  1
  H  565  1  0.29352800  0.66772400  0.57680600  1
  H  566  1  0.30388500  0.63683300  0.57377800  1
  H  567  1  0.32156500  0.60624400  0.57354800  1
  H  568  1  0.34414400  0.57974200  0.57639200  1
  H  569  1  0.39922900  0.61087900  0.59486400  1
  H  570  1  0.35943000  0.68007300  0.59520200  1
  H  571  1  0.35566700  0.63842800  0.62710400  1
  H  572  1  0.41281300  0.65736500  0.65556200  1
  H  573  1  0.43172300  0.66339500  0.62787500  1
  H  574  1  0.38371500  0.64970000  0.55587500  1
  H  575  1  0.44384100  0.66935900  0.59585800  1
  H  576  1  0.44825600  0.67284200  0.56427000  1
  H  610  1  0.79339500  0.82834500  0.40206100  1
  H  611  1  0.80372600  0.85923300  0.40515900  1
  H  612  1  0.82141300  0.88983100  0.40551100  1
  H  613  1  0.84398900  0.91634300  0.40274300  1
  H  614  1  0.89910300  0.88525700  0.38423800  1
  H  615  1  0.85934100  0.81605800  0.38372600  1
  H  616  1  0.85557400  0.85774700  0.35189800  1
  H  617  1  0.91276800  0.83889900  0.32344100  1
  H  618  1  0.93165900  0.83283300  0.35113000  1
  H  619  1  0.88363800  0.84649600  0.42313500  1
  H  620  1  0.94379900  0.82690400  0.38315100  1
  H  621  1  0.94824500  0.82346900  0.41474100  1
  H  655  1  0.54327500  0.33346600  0.07138700  1
  H  656  1  0.55447200  0.32982600  0.10204100  1
  H  657  1  0.57283100  0.32935000  0.13243100  1
  H  658  1  0.59577900  0.33238300  0.15874200  1
  H  659  1  0.64893700  0.35391200  0.12747400  1
  H  660  1  0.60763100  0.35494400  0.05891300  1
  H  661  1  0.60293700  0.38515400  0.10281700  1
  H  662  1  0.65655200  0.41687000  0.08268200  1
  H  663  1  0.67722200  0.39035700  0.07512300  1
  H  664  1  0.63561800  0.31578700  0.08803400  1
  H  665  1  0.69185100  0.35911600  0.06830800  1
  H  666  1  0.69884400  0.32789600  0.06425400  1
  H  700  1  0.04323600  0.16274000  0.90770700  1
  H  701  1  0.05443100  0.16638100  0.87705300  1
  H  702  1  0.07282100  0.16691200  0.84666600  1
  H  703  1  0.09580000  0.16392300  0.82036600  1
  H  704  1  0.14896100  0.14241900  0.85164300  1
  H  705  1  0.10761900  0.14131800  0.92018900  1
  H  706  1  0.10297100  0.11109900  0.87628800  1
  H  707  1  0.15661900  0.07942500  0.89643300  1
  H  708  1  0.17725500  0.10595800  0.90399200  1
  H  709  1  0.13551000  0.18048500  0.89113600  1
  H  710  1  0.19186300  0.13721500  0.91077400  1
  H  711  1  0.19877000  0.16843700  0.91488700  1
  H  727  1  0.79535700  0.21356000  0.38371700  1
  H  734  1  0.72333100  0.25540300  0.42065000  1
  H  735  1  0.69648700  0.27696200  0.41185300  1
  H  736  1  0.72536800  0.27910900  0.36043400  1
  H  737  1  0.79369200  0.23143500  0.43686600  1
  H  740  1  0.77362000  0.26332300  0.36610700  1
  H  741  1  0.75193700  0.25566900  0.35170300  1
  H  742  1  0.77785900  0.23099000  0.36054400  1
  H  743  1  0.74979600  0.22681200  0.36751600  1
  H  748  1  0.80811200  0.20106600  0.42689100  1
  H  750  1  0.70364900  0.30383400  0.37370500  1
  H  757  1  0.29543800  0.28280100  0.59507100  1
  H  764  1  0.22355600  0.24066900  0.55826800  1
  H  765  1  0.19672800  0.21913400  0.56714200  1
  H  766  1  0.22542300  0.21735600  0.61864000  1
  H  767  1  0.29400800  0.26451400  0.54206000  1
  H  770  1  0.27364200  0.23318500  0.61300100  1
  H  771  1  0.25187600  0.24093200  0.62727900  1
  H  772  1  0.27781000  0.26556700  0.61832800  1
  H  773  1  0.24977000  0.26966300  0.61124500  1
  H  778  1  0.30823900  0.29504100  0.55195600  1
  H  780  1  0.20375500  0.19251600  0.60546400  1
  H  787  1  0.04296800  0.85299200  0.95341000  1
  H  794  1  0.97387300  0.81473000  0.99696400  1
  H  795  1  0.94811300  0.82297300  0.01959200  1
  H  796  1  0.97767100  0.87409400  0.02263300  1
  H  797  1  0.04222600  0.79920700  0.96930500  1
  H  800  1  0.02520200  0.86858100  0.00483000  1
  H  801  1  0.00324300  0.88350000  0.99884700  1
  H  802  1  0.02709200  0.87553700  0.97261400  1
  H  803  1  0.99867500  0.86892100  0.96947700  1
  H  808  1  0.05468400  0.81058500  0.93861500  1
  H  810  1  0.95629000  0.86014900  0.04739400  1
  H  817  1  0.54301200  0.64303000  0.02554900  1
  H  824  1  0.47393100  0.68143900  0.98213100  1
  H  825  1  0.44815200  0.67326700  0.95948800  1
  H  826  1  0.47774800  0.62216900  0.95624200  1
  H  827  1  0.54222500  0.69688600  0.00989300  1
  H  830  1  0.52530500  0.62765600  0.97403800  1
  H  831  1  0.50336800  0.61268900  0.97995400  1
  H  832  1  0.52719900  0.62055600  0.00622400  1
  H  833  1  0.49877600  0.62714300  0.00938800  1
  H  838  1  0.55480600  0.68550100  0.04046000  1
  H  840  1  0.45632800  0.63616600  0.93155800  1
  H  847  1  0.20357100  0.78410400  0.59505900  1
  H  854  1  0.27232800  0.74068700  0.55622700  1
  H  855  1  0.29806000  0.71793900  0.56423600  1
  H  856  1  0.26865300  0.71454500  0.61538900  1
  H  857  1  0.20402700  0.76871400  0.54112900  1
  H  860  1  0.22115300  0.73249900  0.61011800  1
  H  861  1  0.24318900  0.73828000  0.62504600  1
  H  862  1  0.21945700  0.76465800  0.61738200  1
  H  863  1  0.24785800  0.76776600  0.61071100  1
  H  868  1  0.19152500  0.79920000  0.55265600  1
  H  870  1  0.28995800  0.68989100  0.60131300  1
  H  877  1  0.70339700  0.71202100  0.38424600  1
  H  884  1  0.77222500  0.75558700  0.42286200  1
  H  885  1  0.79795400  0.77829300  0.41475200  1
  H  886  1  0.76860700  0.78141100  0.36355900  1
  H  887  1  0.70381100  0.72775900  0.43807500  1
  H  890  1  0.72113200  0.76347800  0.36886500  1
  H  891  1  0.74319600  0.75757900  0.35401000  1
  H  892  1  0.71940900  0.73126900  0.36181500  1
  H  893  1  0.74779400  0.72818800  0.36854300  1
  H  898  1  0.69136500  0.69715300  0.42662800  1
  H  900  1  0.78985300  0.80616600  0.37758300  1
  H  907  1  0.95519600  0.14274000  0.02603800  1
  H  914  1  0.02205100  0.18190000  0.98116600  1
  H  915  1  0.04692700  0.17401100  0.95774800  1
  H  916  1  0.01703200  0.12303800  0.95444800  1
  H  917  1  0.95484600  0.19677400  0.01100300  1
  H  920  1  0.97031600  0.12819700  0.97387300  1
  H  921  1  0.99258300  0.11317500  0.97879100  1
  H  922  1  0.97025000  0.12058400  0.00600000  1
  H  923  1  0.99879100  0.12722100  0.00825600  1
  H  928  1  0.94313900  0.18509200  0.04152100  1
  H  930  1  0.03765600  0.13782500  0.92932200  1
  H  937  1  0.45523400  0.35369500  0.95309300  1
  H  944  1  0.52206300  0.31444400  0.99788500  1
  H  945  1  0.54695400  0.32228900  0.02131000  1
  H  946  1  0.51699500  0.37323100  0.02476600  1
  H  947  1  0.45494700  0.29960700  0.96794000  1
  H  950  1  0.47025000  0.36806400  0.00534800  1
  H  951  1  0.49248200  0.38313700  0.00049300  1
  H  952  1  0.47018300  0.37579800  0.97325000  1
  H  953  1  0.49873600  0.36920200  0.97097700  1
  H  958  1  0.44318000  0.31129000  0.93750800  1
  H  960  1  0.53767500  0.35842000  0.04982600  1
  H  967  1  0.29474200  0.71332300  0.88382500  1
  H  974  1  0.22360700  0.75613600  0.92065600  1
  H  975  1  0.19726700  0.77808900  0.91178700  1
  H  976  1  0.22658500  0.78003000  0.86051600  1
  H  977  1  0.29351800  0.73127100  0.93696200  1
  H  980  1  0.27440800  0.76334800  0.86628300  1
  H  981  1  0.25255800  0.75614500  0.85180200  1
  H  982  1  0.27762900  0.73092900  0.86064600  1
  H  983  1  0.24943300  0.72731300  0.86759200  1
  H  988  1  0.30767300  0.70086600  0.92703500  1
  H  990  1  0.20532400  0.80515400  0.87421700  1
  H  997  1  0.79488300  0.78301800  0.09499400  1
  H  1004  1  0.72354900  0.74025800  0.05827800  1
  H  1005  1  0.69728100  0.71826200  0.06716300  1
  H  1006  1  0.72661900  0.71641000  0.11843300  1
  H  1007  1  0.79364300  0.76486000  0.04192800  1
  H  1010  1  0.77431200  0.73317000  0.11273100  1
  H  1011  1  0.75242100  0.74046500  0.12712800  1
  H  1012  1  0.77757700  0.76561300  0.11822100  1
  H  1013  1  0.74940300  0.76922700  0.11122000  1
  H  1018  1  0.80784000  0.79530000  0.05182000  1
  H  1020  1  0.70549100  0.69120900  0.10472500  1
  H  1027  1  0.54597100  0.35358700  0.45495500  1
  H  1034  1  0.47347300  0.31698600  0.49663400  1
  H  1035  1  0.44651900  0.32594100  0.51803300  1
  H  1036  1  0.47537400  0.37737900  0.51989200  1
  H  1037  1  0.54416300  0.30059900  0.47330000  1
  H  1040  1  0.52368200  0.37162100  0.50434200  1
  H  1041  1  0.50204500  0.38593500  0.49643900  1
  H  1042  1  0.52818200  0.37689400  0.47197500  1
  H  1043  1  0.50016400  0.36985700  0.46772100  1
  H  1048  1  0.55882100  0.31044700  0.44287600  1
  H  1050  1  0.45357100  0.36422200  0.54468000  1
  H  1057  1  0.04603600  0.14244500  0.52396000  1
  H  1064  1  0.97343800  0.17910100  0.48248000  1
  H  1065  1  0.94644000  0.17019300  0.46109500  1
  H  1066  1  0.97541300  0.11880300  0.45898100  1
  H  1067  1  0.04405900  0.19551200  0.50585800  1
  H  1070  1  0.02376400  0.12459000  0.47446400  1
  H  1071  1  0.00219200  0.11019400  0.48232900  1
  H  1072  1  0.02835300  0.11917400  0.50679700  1
  H  1073  1  0.00032300  0.12613800  0.51112500  1
  H  1078  1  0.05876000  0.18564500  0.53617000  1
  H  1080  1  0.95353300  0.13199700  0.43429900  1
  H  1087  1  0.70486800  0.28457400  0.09476000  1
  H  1094  1  0.77192600  0.23990900  0.05558900  1
  H  1095  1  0.79692400  0.21657300  0.06349400  1
  H  1096  1  0.76701500  0.21318900  0.11446000  1
  H  1097  1  0.70455100  0.26954300  0.04072300  1
  H  1100  1  0.72018400  0.23248200  0.10926700  1
  H  1101  1  0.74242100  0.23742800  0.12430700  1
  H  1102  1  0.72004400  0.26460900  0.11690800  1
  H  1103  1  0.74857500  0.26690800  0.11025800  1
  H  1108  1  0.69259400  0.30001800  0.05243100  1
  H  1110  1  0.78781700  0.18815700  0.09977300  1
  H  1117  1  0.20471800  0.21159600  0.88448000  1
  H  1124  1  0.27191800  0.25624900  0.92354500  1
  H  1125  1  0.29692200  0.27956100  0.91559900  1
  H  1126  1  0.26704500  0.28283700  0.86461200  1
  H  1127  1  0.20441700  0.22679200  0.93847200  1
  H  1130  1  0.22023000  0.26358300  0.86980600  1
  H  1131  1  0.24248200  0.25854900  0.85480900  1
  H  1132  1  0.22002200  0.23142800  0.86227900  1
  H  1133  1  0.24853800  0.22911000  0.86896000  1
  H  1138  1  0.19248400  0.19625000  0.92677400  1
  H  1140  1  0.28779500  0.30791000  0.87929000  1
  H  1147  1  0.45171900  0.64218400  0.52446400  1
  H  1154  1  0.52266100  0.67932400  0.48162500  1
  H  1155  1  0.54888700  0.67059100  0.45952900  1
  H  1156  1  0.51974300  0.61926600  0.45753400  1
  H  1157  1  0.45268500  0.69536800  0.50664800  1
  H  1160  1  0.47206200  0.62481300  0.47441900  1
  H  1161  1  0.49401800  0.61039900  0.48155300  1
  H  1162  1  0.46898200  0.61910600  0.50683700  1
  H  1163  1  0.49715400  0.62613800  0.51040400  1
  H  1168  1  0.43865800  0.68527800  0.53704400  1
  H  1170  1  0.54077800  0.63310600  0.43235700  1
  H  1177  1  0.95165000  0.85426200  0.45476500  1
  H  1184  1  0.02268400  0.81707000  0.49741900  1
  H  1185  1  0.04896500  0.82575800  0.51949200  1
  H  1186  1  0.01971200  0.87703700  0.52173000  1
  H  1187  1  0.95277500  0.80100700  0.47235900  1
  H  1190  1  0.97197400  0.87146300  0.50491800  1
  H  1191  1  0.99386800  0.88595200  0.49781900  1
  H  1192  1  0.96879800  0.87730500  0.47253300  1
  H  1193  1  0.99698300  0.87034400  0.46889200  1
  H  1198  1  0.93871100  0.81110800  0.44206600  1
  H  1200  1  0.04083800  0.86316400  0.54680200  1
  H  1207  1  0.86292400  0.13065600  0.28908900  1
  H  1214  1  0.84025600  0.16850300  0.21941500  1
  H  1215  1  0.84929900  0.16276300  0.18916100  1
  H  1216  1  0.88267000  0.11533700  0.20400600  1
  H  1217  1  0.86387600  0.18549200  0.27815300  1
  H  1220  1  0.89279000  0.11951600  0.24349000  1
  H  1221  1  0.87449900  0.10322300  0.23420800  1
  H  1222  1  0.86535100  0.10914700  0.26616600  1
  H  1223  1  0.84243600  0.11402700  0.25186400  1
  H  1228  1  0.87747400  0.17308600  0.30571600  1
  H  1230  1  0.89097300  0.13187400  0.17611000  1
  H  1237  1  0.36291200  0.36546300  0.68989300  1
  H  1244  1  0.34010600  0.32766000  0.75955100  1
  H  1245  1  0.34911100  0.33338600  0.78980600  1
  H  1246  1  0.38256900  0.38078800  0.77499600  1
  H  1247  1  0.36381800  0.31063500  0.70085100  1
  H  1250  1  0.39273300  0.37660400  0.73552200  1
  H  1251  1  0.37444500  0.39291200  0.74478500  1
  H  1252  1  0.36534100  0.38698300  0.71281500  1
  H  1253  1  0.34239900  0.38213100  0.72709900  1
  H  1258  1  0.37748700  0.32304800  0.67330500  1
  H  1260  1  0.39082300  0.36424200  0.80289300  1
  H  1267  1  0.11251400  0.94887600  0.87310800  1
  H  1274  1  0.08954100  0.01909700  0.90976800  1
  H  1275  1  0.09874000  0.04923700  0.90366500  1
  H  1276  1  0.13260800  0.03366600  0.85669400  1
  H  1277  1  0.11261200  0.96058100  0.92779400  1
  H  1280  1  0.14262800  0.99422700  0.86159000  1
  H  1281  1  0.12462200  0.00329600  0.84498100  1
  H  1282  1  0.11527400  0.97145300  0.85129200  1
  H  1283  1  0.09233500  0.98586900  0.85574700  1
  H  1288  1  0.12619300  0.93280700  0.91596600  1
  H  1290  1  0.14075600  0.06178600  0.87284500  1
  H  1297  1  0.61250300  0.54737300  0.10600400  1
  H  1304  1  0.58942600  0.47717200  0.06933700  1
  H  1305  1  0.59862400  0.44702900  0.07543700  1
  H  1306  1  0.63251000  0.46259600  0.12240300  1
  H  1307  1  0.61263200  0.53568500  0.05131700  1
  H  1310  1  0.64252500  0.50203000  0.11751900  1
  H  1311  1  0.62450900  0.49296300  0.13412200  1
  H  1312  1  0.61516100  0.52480100  0.12781700  1
  H  1313  1  0.59222600  0.51038900  0.12333900  1
  H  1318  1  0.62624400  0.56344500  0.06315900  1
  H  1320  1  0.64065400  0.43448800  0.10627100  1
  H  1327  1  0.62817600  0.37174700  0.28722300  1
  H  1334  1  0.65861500  0.32652000  0.22381500  1
  H  1335  1  0.65221400  0.32877700  0.19266900  1
  H  1336  1  0.61879200  0.37787300  0.20023200  1
  H  1337  1  0.62758200  0.31605900  0.28202800  1
  H  1340  1  0.60500400  0.37856700  0.23871500  1
  H  1341  1  0.62507800  0.39337300  0.22924600  1
  H  1342  1  0.62994900  0.39078500  0.26223000  1
  H  1343  1  0.65429900  0.38405300  0.25037900  1
  H  1348  1  0.61159500  0.33085100  0.30712000  1
  H  1350  1  0.61196000  0.35878300  0.17447600  1
  H  1357  1  0.12828500  0.12444000  0.69193400  1
  H  1364  1  0.15869600  0.16971500  0.75529900  1
  H  1365  1  0.15228800  0.16749700  0.78643800  1
  H  1366  1  0.11890000  0.11837500  0.77893400  1
  H  1367  1  0.12761900  0.18012700  0.69710400  1
  H  1370  1  0.10513300  0.11762100  0.74045000  1
  H  1371  1  0.12523200  0.10284300  0.74993200  1
  H  1372  1  0.13009000  0.10541100  0.71694100  1
  H  1373  1  0.15443500  0.11216400  0.72878700  1
  H  1378  1  0.11164800  0.16532100  0.67203500  1
  H  1380  1  0.11202600  0.13751200  0.80465300  1
  H  1387  1  0.37915000  0.54551400  0.86707900  1
  H  1394  1  0.40992500  0.48133500  0.91098000  1
  H  1395  1  0.40325200  0.45027000  0.90835700  1
  H  1396  1  0.36906100  0.45866400  0.85972900  1
  H  1397  1  0.37959400  0.53945900  0.92268300  1
  H  1400  1  0.35548000  0.49722100  0.85980900  1
  H  1401  1  0.37517900  0.48789800  0.84459900  1
  H  1402  1  0.38032800  0.52082000  0.84763800  1
  H  1403  1  0.40473500  0.50876400  0.85386100  1
  H  1408  1  0.36366100  0.56485500  0.90855200  1
  H  1410  1  0.36241700  0.43265600  0.87847400  1
  H  1417  1  0.87896100  0.95066300  0.11198200  1
  H  1424  1  0.90988800  0.01478000  0.06805500  1
  H  1425  1  0.90329700  0.04585600  0.07067900  1
  H  1426  1  0.86912500  0.03751800  0.11932900  1
  H  1427  1  0.87934100  0.95670300  0.05637700  1
  H  1430  1  0.85544300  0.99898600  0.11925700  1
  H  1431  1  0.87518300  0.00827700  0.13445500  1
  H  1432  1  0.88025300  0.97535100  0.13141500  1
  H  1433  1  0.90467800  0.98736700  0.12516400  1
  H  1438  1  0.86338000  0.93131900  0.07053800  1
  H  1440  1  0.86252200  0.06351800  0.10059300  1
  H  1447  1  0.13371900  0.86489600  0.69076500  1
  H  1454  1  0.15506500  0.82793200  0.76117700  1
  H  1455  1  0.14546900  0.83409800  0.79122500  1
  H  1456  1  0.11240100  0.88131600  0.77534000  1
  H  1457  1  0.13310400  0.81017500  0.70229000  1
  H  1460  1  0.10292000  0.87645900  0.73575100  1
  H  1461  1  0.12088900  0.89295100  0.74507500  1
  H  1462  1  0.13082600  0.88666500  0.71335000  1
  H  1463  1  0.15342800  0.88201300  0.72803600  1
  H  1468  1  0.12009600  0.82204900  0.67442800  1
  H  1470  1  0.10393200  0.86551300  0.80356400  1
  H  1477  1  0.63371200  0.63144800  0.28839500  1
  H  1484  1  0.65523300  0.66834300  0.21799100  1
  H  1485  1  0.64568400  0.66218200  0.18794000  1
  H  1486  1  0.61251300  0.61499400  0.20379700  1
  H  1487  1  0.63315000  0.68615600  0.27682800  1
  H  1490  1  0.60297900  0.61986900  0.24337500  1
  H  1491  1  0.62094500  0.60336000  0.23408000  1
  H  1492  1  0.63082700  0.60965800  0.26581800  1
  H  1493  1  0.65346000  0.61427900  0.25115400  1
  H  1498  1  0.62005000  0.67428200  0.30467300  1
  H  1500  1  0.60410200  0.63081000  0.17556900  1
  H  1507  1  0.36692000  0.62558900  0.69235500  1
  H  1514  1  0.33760000  0.66976400  0.75678100  1
  H  1515  1  0.34435900  0.66699700  0.78780600  1
  H  1516  1  0.37772700  0.61805200  0.77919800  1
  H  1517  1  0.36706800  0.68119900  0.69835300  1
  H  1520  1  0.39121100  0.61824200  0.74049800  1
  H  1521  1  0.37152400  0.60311100  0.74995900  1
  H  1522  1  0.36597900  0.60618500  0.71709000  1
  H  1523  1  0.34177900  0.61255800  0.72932500  1
  H  1528  1  0.38246900  0.66701300  0.67283700  1
  H  1530  1  0.38441300  0.63629100  0.80544000  1
  H  1537  1  0.86681900  0.87061800  0.28661700  1
  H  1544  1  0.83744200  0.82635900  0.22225900  1
  H  1545  1  0.84426300  0.82906300  0.19123600  1
  H  1546  1  0.87765400  0.87801000  0.19979000  1
  H  1547  1  0.86697700  0.81500000  0.28070100  1
  H  1550  1  0.89107100  0.87790000  0.23848700  1
  H  1551  1  0.87137900  0.89301000  0.22899800  1
  H  1552  1  0.86581400  0.88998600  0.26186400  1
  H  1553  1  0.84162400  0.88358400  0.24963200  1
  H  1558  1  0.88239700  0.82921900  0.30618300  1
  H  1560  1  0.88435900  0.85975200  0.17359100  1
  H  1567  1  0.61285800  0.44903200  0.37222000  1
  H  1574  1  0.59174000  0.51914200  0.40988800  1
  H  1575  1  0.60110000  0.54927400  0.40386500  1
  H  1576  1  0.63361100  0.53384100  0.35626000  1
  H  1577  1  0.61440800  0.46019600  0.42699900  1
  H  1580  1  0.64330000  0.49425400  0.36068000  1
  H  1581  1  0.62501000  0.50364000  0.34444700  1
  H  1582  1  0.61537000  0.47182400  0.35059000  1
  H  1583  1  0.59275300  0.48639000  0.35555900  1
  H  1588  1  0.62755000  0.43249800  0.41470700  1
  H  1590  1  0.64220600  0.56196100  0.37225200  1
  H  1597  1  0.11283700  0.04730900  0.60682100  1
  H  1604  1  0.09173200  0.97719200  0.56917200  1
  H  1605  1  0.10104500  0.94706200  0.57522100  1
  H  1606  1  0.13349900  0.96249800  0.62285100  1
  H  1607  1  0.11446300  0.03612000  0.55205300  1
  H  1610  1  0.14323400  0.00208200  0.61840800  1
  H  1611  1  0.12492600  0.99271100  0.63463700  1
  H  1612  1  0.11530400  0.02452700  0.62847000  1
  H  1613  1  0.09268600  0.00996400  0.62349100  1
  H  1618  1  0.12762000  0.06381100  0.56436000  1
  H  1620  1  0.14210000  0.93437100  0.60687500  1
  H  1627  1  0.87857800  0.04542900  0.36618300  1
  H  1634  1  0.90751600  0.98145600  0.41125600  1
  H  1635  1  0.90099000  0.95037300  0.40863800  1
  H  1636  1  0.86852700  0.95849800  0.35923900  1
  H  1637  1  0.87728300  0.03987200  0.42182600  1
  H  1640  1  0.85487400  0.99711900  0.35889400  1
  H  1641  1  0.87497000  0.98762500  0.34412500  1
  H  1642  1  0.88021400  0.02053700  0.34699700  1
  H  1643  1  0.90435300  0.00846700  0.35381400  1
  H  1648  1  0.86178900  0.06515000  0.40716000  1
  H  1650  1  0.86154300  0.93241100  0.37768700  1
  H  1657  1  0.37841600  0.45070300  0.61292600  1
  H  1664  1  0.40752100  0.51464900  0.56788800  1
  H  1665  1  0.40108500  0.54574200  0.57052800  1
  H  1666  1  0.36860500  0.53764100  0.61992700  1
  H  1667  1  0.37707300  0.45629500  0.55728700  1
  H  1670  1  0.35484700  0.49904200  0.62024900  1
  H  1671  1  0.37497500  0.50849200  0.63502000  1
  H  1672  1  0.38013900  0.47557600  0.63212400  1
  H  1673  1  0.40430400  0.48761100  0.62529900  1
  H  1678  1  0.36156900  0.43100900  0.57195300  1
  H  1680  1  0.36167200  0.56373400  0.60148600  1
  H  1705  1  0.01732090  0.17421400  0.41334700  1
  H  1706  1  0.02113290  0.14263800  0.40925300  1
  H  1707  1  0.03278890  0.11054000  0.40292500  1
  H  1708  1  0.05130690  0.08270600  0.39669100  1
  H  1709  1  0.10982400  0.11074500  0.37991600  1
  H  1710  1  0.08314690  0.18211800  0.39242400  1
  H  1711  1  0.06822890  0.14570800  0.35256600  1
  H  1712  1  0.12592200  0.16235100  0.32337400  1
  H  1713  1  0.14734700  0.16354800  0.35044200  1
  H  1714  1  0.10476700  0.14115500  0.42247300  1
  H  1715  1  0.16358200  0.16190800  0.38167700  1
  H  1716  1  0.17223100  0.15741900  0.41273000  1
  H  1750  1  0.51742400  0.32182100  0.56560100  1
  H  1751  1  0.52113000  0.35339700  0.56976900  1
  H  1752  1  0.53271000  0.38551700  0.57611800  1
  H  1753  1  0.55115500  0.41337200  0.58237900  1
  H  1754  1  0.60974500  0.38540600  0.59911900  1
  H  1755  1  0.58327300  0.31401000  0.58651400  1
  H  1756  1  0.56820800  0.35036800  0.62643300  1
  H  1757  1  0.62591900  0.33379900  0.65564800  1
  H  1758  1  0.64737000  0.33265100  0.62859100  1
  H  1759  1  0.60478600  0.35499500  0.55654400  1
  H  1760  1  0.66364800  0.33439400  0.59737400  1
  H  1761  1  0.67230000  0.33888300  0.56632100  1
  H  1795  1  0.26675700  0.82387100  0.91138100  1
  H  1796  1  0.27256800  0.82880300  0.88012100  1
  H  1797  1  0.28637700  0.83595300  0.84865800  1
  H  1798  1  0.30653200  0.84333300  0.82186700  1
  H  1799  1  0.36215500  0.86111300  0.85280000  1
  H  1800  1  0.33165800  0.84516700  0.92247500  1
  H  1801  1  0.31839600  0.88586500  0.88720100  1
  H  1802  1  0.37479800  0.91502200  0.90649700  1
  H  1803  1  0.39651800  0.88811800  0.90757200  1
  H  1804  1  0.35610000  0.81656000  0.88141900  1
  H  1805  1  0.41329100  0.85700800  0.90544700  1
  H  1806  1  0.42253000  0.82615900  0.90022700  1
  H  1840  1  0.76685500  0.67230200  0.06777500  1
  H  1841  1  0.77273500  0.66748100  0.09904100  1
  H  1842  1  0.78661300  0.66045900  0.13050300  1
  H  1843  1  0.80677300  0.65308000  0.15729400  1
  H  1844  1  0.86231800  0.63516100  0.12635200  1
  H  1845  1  0.83173900  0.65098000  0.05666300  1
  H  1846  1  0.81849400  0.61040800  0.09192300  1
  H  1847  1  0.87486700  0.58120600  0.07264400  1
  H  1848  1  0.89663100  0.60808700  0.07160100  1
  H  1849  1  0.85624500  0.67970400  0.09763600  1
  H  1850  1  0.91344300  0.63919300  0.07372900  1
  H  1851  1  0.92267500  0.67005800  0.07885300  1
  H  1885  1  0.92235400  0.32552700  0.39893500  1
  H  1886  1  0.91367800  0.35657400  0.40341300  1
  H  1887  1  0.89740800  0.38778000  0.40508000  1
  H  1888  1  0.87596400  0.41483500  0.40389800  1
  H  1889  1  0.81817300  0.38558700  0.38758100  1
  H  1890  1  0.85480300  0.31568400  0.38296400  1
  H  1891  1  0.85961600  0.35827200  0.35256800  1
  H  1892  1  0.80106200  0.34133900  0.32467300  1
  H  1893  1  0.78266100  0.33509600  0.35256000  1
  H  1894  1  0.83351500  0.34539900  0.42394800  1
  H  1895  1  0.77125500  0.32860300  0.38469800  1
  H  1896  1  0.76779000  0.32419400  0.41625600  1
  H  1930  1  0.42247100  0.17076200  0.58027000  1
  H  1931  1  0.41378100  0.13972100  0.57576300  1
  H  1932  1  0.39747500  0.10852300  0.57401300  1
  H  1933  1  0.37600800  0.08147800  0.57514700  1
  H  1934  1  0.31823800  0.11073300  0.59150500  1
  H  1935  1  0.35491600  0.18061100  0.59622500  1
  H  1936  1  0.35969100  0.13797700  0.62658500  1
  H  1937  1  0.30110100  0.15482600  0.65448300  1
  H  1938  1  0.28272000  0.16111800  0.62660000  1
  H  1939  1  0.33357000  0.15085700  0.55520100  1
  H  1940  1  0.27129800  0.16760000  0.59446400  1
  H  1941  1  0.26780500  0.17198200  0.56290400  1
  H  1975  1  0.67223800  0.66065100  0.90944600  1
  H  1976  1  0.66183300  0.66379200  0.87857400  1
  H  1977  1  0.64407500  0.66406200  0.84797100  1
  H  1978  1  0.62144100  0.66119000  0.82150200  1
  H  1979  1  0.56637800  0.64285000  0.85274800  1
  H  1980  1  0.60627500  0.64241700  0.92183000  1
  H  1981  1  0.60989600  0.61068100  0.88010600  1
  H  1982  1  0.55275900  0.58220400  0.89903300  1
  H  1983  1  0.53389200  0.60989500  0.90518000  1
  H  1984  1  0.58204100  0.68186400  0.89151900  1
  H  1985  1  0.52184400  0.64197000  0.91123200  1
  H  1986  1  0.51751500  0.67356500  0.91473000  1
  H  2020  1  0.17225700  0.83570900  0.06955400  1
  H  2021  1  0.16187700  0.83252000  0.10042600  1
  H  2022  1  0.14411200  0.83213400  0.13103200  1
  H  2023  1  0.12146000  0.83490300  0.15750600  1
  H  2024  1  0.06634290  0.85318500  0.12629100  1
  H  2025  1  0.10622500  0.85381400  0.05720600  1
  H  2026  1  0.10977800  0.88550800  0.09892900  1
  H  2027  1  0.05254890  0.91389700  0.08003900  1
  H  2028  1  0.03375190  0.88617400  0.07390100  1
  H  2029  1  0.08217390  0.81429100  0.08740700  1
  H  2030  1  0.02177290  0.85407900  0.06787400  1
  H  2031  1  0.01758390  0.82248300  0.06427700  1
  H  2065  1  0.41852700  0.82654000  0.56583600  1
  H  2066  1  0.41255500  0.85782500  0.57046600  1
  H  2067  1  0.39865700  0.88927200  0.57732600  1
  H  2068  1  0.37845900  0.91610600  0.58449500  1
  H  2069  1  0.32286000  0.88526300  0.60247300  1
  H  2070  1  0.35367400  0.81544100  0.58721200  1
  H  2071  1  0.36671800  0.85098500  0.62761700  1
  H  2072  1  0.31035700  0.83164600  0.65679000  1
  H  2073  1  0.28866500  0.83044900  0.62988300  1
  H  2074  1  0.32903000  0.85621900  0.55818400  1
  H  2075  1  0.27194800  0.83230800  0.59879400  1
  H  2076  1  0.26270800  0.83723200  0.56790000  1
  H  2110  1  0.91838700  0.66988500  0.41337200  1
  H  2111  1  0.91253000  0.63860000  0.40864900  1
  H  2112  1  0.89870300  0.60713000  0.40176100  1
  H  2113  1  0.87855600  0.58027800  0.39459500  1
  H  2114  1  0.82289000  0.61105500  0.37663900  1
  H  2115  1  0.85350800  0.68089900  0.39199700  1
  H  2116  1  0.86671400  0.64540900  0.35151600  1
  H  2117  1  0.81033100  0.66467600  0.32231400  1
  H  2118  1  0.78860900  0.66582400  0.34920800  1
  H  2119  1  0.82899200  0.64010900  0.42092600  1
  H  2120  1  0.77184700  0.66387300  0.38028500  1
  H  2121  1  0.76261200  0.65895800  0.41118000  1
  H  2155  1  0.16875800  0.17347900  0.06949300  1
  H  2156  1  0.16163900  0.16976600  0.10073800  1
  H  2157  1  0.14695200  0.16317700  0.13202000  1
  H  2158  1  0.12630900  0.15568200  0.15857800  1
  H  2159  1  0.07261790  0.13553700  0.12695600  1
  H  2160  1  0.10545600  0.14977900  0.05749100  1
  H  2161  1  0.11875400  0.11078100  0.09589800  1
  H  2162  1  0.06583290  0.07927400  0.07434100  1
  H  2163  1  0.04277690  0.10550500  0.07114500  1
  H  2164  1  0.07722290  0.17924400  0.09641800  1
  H  2165  1  0.02430490  0.13585500  0.07141900  1
  H  2166  1  0.01299490  0.16650900  0.07484500  1
  H  2200  1  0.66877700  0.32283200  0.90946900  1
  H  2201  1  0.66156800  0.32642800  0.87822400  1
  H  2202  1  0.64679500  0.33289900  0.84694700  1
  H  2203  1  0.62612800  0.34037700  0.82039400  1
  H  2204  1  0.57249000  0.36058500  0.85203400  1
  H  2205  1  0.60545800  0.34649000  0.92149400  1
  H  2206  1  0.61865200  0.38538200  0.88310900  1
  H  2207  1  0.56572700  0.41685700  0.90470400  1
  H  2208  1  0.54267400  0.39062000  0.90786800  1
  H  2209  1  0.57718700  0.31689000  0.88261900  1
  H  2210  1  0.52421400  0.36026000  0.90758000  1
  H  2211  1  0.51295300  0.32958900  0.90419800  1
  H  2245  1  0.51301000  0.66772400  0.57680600  1
  H  2246  1  0.52336700  0.63683300  0.57377800  1
  H  2247  1  0.54104700  0.60624400  0.57354800  1
  H  2248  1  0.56362600  0.57974200  0.57639200  1
  H  2249  1  0.61871100  0.61087900  0.59486400  1
  H  2250  1  0.57891200  0.68007300  0.59520200  1
  H  2251  1  0.57514900  0.63842800  0.62710400  1
  H  2252  1  0.63229500  0.65736500  0.65556200  1
  H  2253  1  0.65120500  0.66339500  0.62787500  1
  H  2254  1  0.60319700  0.64970000  0.55587500  1
  H  2255  1  0.66332300  0.66935900  0.59585800  1
  H  2256  1  0.66773800  0.67284200  0.56427000  1
  H  2290  1  0.01287690  0.82834500  0.40206100  1
  H  2291  1  0.02320790  0.85923300  0.40515900  1
  H  2292  1  0.04089490  0.88983100  0.40551100  1
  H  2293  1  0.06347090  0.91634300  0.40274300  1
  H  2294  1  0.11858500  0.88525700  0.38423800  1
  H  2295  1  0.07882290  0.81605800  0.38372600  1
  H  2296  1  0.07505590  0.85774700  0.35189800  1
  H  2297  1  0.13225000  0.83889900  0.32344100  1
  H  2298  1  0.15114100  0.83283300  0.35113000  1
  H  2299  1  0.10312000  0.84649600  0.42313500  1
  H  2300  1  0.16328100  0.82690400  0.38315100  1
  H  2301  1  0.16772700  0.82346900  0.41474100  1
  H  2335  1  0.76275700  0.33346600  0.07138700  1
  H  2336  1  0.77395400  0.32982600  0.10204100  1
  H  2337  1  0.79231300  0.32935000  0.13243100  1
  H  2338  1  0.81526100  0.33238300  0.15874200  1
  H  2339  1  0.86841900  0.35391200  0.12747400  1
  H  2340  1  0.82711300  0.35494400  0.05891300  1
  H  2341  1  0.82241900  0.38515400  0.10281700  1
  H  2342  1  0.87603400  0.41687000  0.08268200  1
  H  2343  1  0.89670400  0.39035700  0.07512300  1
  H  2344  1  0.85510000  0.31578700  0.08803400  1
  H  2345  1  0.91133300  0.35911600  0.06830800  1
  H  2346  1  0.91832600  0.32789600  0.06425400  1
  H  2380  1  0.26271800  0.16274000  0.90770700  1
  H  2381  1  0.27391300  0.16638100  0.87705300  1
  H  2382  1  0.29230300  0.16691200  0.84666600  1
  H  2383  1  0.31528200  0.16392300  0.82036600  1
  H  2384  1  0.36844300  0.14241900  0.85164300  1
  H  2385  1  0.32710100  0.14131800  0.92018900  1
  H  2386  1  0.32245300  0.11109900  0.87628800  1
  H  2387  1  0.37610100  0.07942500  0.89643300  1
  H  2388  1  0.39673700  0.10595800  0.90399200  1
  H  2389  1  0.35499200  0.18048500  0.89113600  1
  H  2390  1  0.41134500  0.13721500  0.91077400  1
  H  2391  1  0.41825200  0.16843700  0.91488700  1
  H  2407  1  0.01483890  0.21356000  0.38371700  1
  H  2414  1  0.94281300  0.25540300  0.42065000  1
  H  2415  1  0.91596900  0.27696200  0.41185300  1
  H  2416  1  0.94485000  0.27910900  0.36043400  1
  H  2417  1  0.01317390  0.23143500  0.43686600  1
  H  2420  1  0.99310200  0.26332300  0.36610700  1
  H  2421  1  0.97141900  0.25566900  0.35170300  1
  H  2422  1  0.99734100  0.23099000  0.36054400  1
  H  2423  1  0.96927800  0.22681200  0.36751600  1
  H  2428  1  0.02759390  0.20106600  0.42689100  1
  H  2430  1  0.92313100  0.30383400  0.37370500  1
  H  2437  1  0.51492000  0.28280100  0.59507100  1
  H  2444  1  0.44303800  0.24066900  0.55826800  1
  H  2445  1  0.41621000  0.21913400  0.56714200  1
  H  2446  1  0.44490500  0.21735600  0.61864000  1
  H  2447  1  0.51349000  0.26451400  0.54206000  1
  H  2450  1  0.49312400  0.23318500  0.61300100  1
  H  2451  1  0.47135800  0.24093200  0.62727900  1
  H  2452  1  0.49729200  0.26556700  0.61832800  1
  H  2453  1  0.46925200  0.26966300  0.61124500  1
  H  2458  1  0.52772100  0.29504100  0.55195600  1
  H  2460  1  0.42323700  0.19251600  0.60546400  1
  H  2467  1  0.26245000  0.85299200  0.95341000  1
  H  2474  1  0.19335500  0.81473000  0.99696400  1
  H  2475  1  0.16759500  0.82297300  0.01959200  1
  H  2476  1  0.19715300  0.87409400  0.02263300  1
  H  2477  1  0.26170800  0.79920700  0.96930500  1
  H  2480  1  0.24468400  0.86858100  0.00483000  1
  H  2481  1  0.22272500  0.88350000  0.99884700  1
  H  2482  1  0.24657400  0.87553700  0.97261400  1
  H  2483  1  0.21815700  0.86892100  0.96947700  1
  H  2488  1  0.27416600  0.81058500  0.93861500  1
  H  2490  1  0.17577200  0.86014900  0.04739400  1
  H  2497  1  0.76249400  0.64303000  0.02554900  1
  H  2504  1  0.69341300  0.68143900  0.98213100  1
  H  2505  1  0.66763400  0.67326700  0.95948800  1
  H  2506  1  0.69723000  0.62216900  0.95624200  1
  H  2507  1  0.76170700  0.69688600  0.00989300  1
  H  2510  1  0.74478700  0.62765600  0.97403800  1
  H  2511  1  0.72285000  0.61268900  0.97995400  1
  H  2512  1  0.74668100  0.62055600  0.00622400  1
  H  2513  1  0.71825800  0.62714300  0.00938800  1
  H  2518  1  0.77428800  0.68550100  0.04046000  1
  H  2520  1  0.67581000  0.63616600  0.93155800  1
  H  2527  1  0.42305300  0.78410400  0.59505900  1
  H  2534  1  0.49181000  0.74068700  0.55622700  1
  H  2535  1  0.51754200  0.71793900  0.56423600  1
  H  2536  1  0.48813500  0.71454500  0.61538900  1
  H  2537  1  0.42350900  0.76871400  0.54112900  1
  H  2540  1  0.44063500  0.73249900  0.61011800  1
  H  2541  1  0.46267100  0.73828000  0.62504600  1
  H  2542  1  0.43893900  0.76465800  0.61738200  1
  H  2543  1  0.46734000  0.76776600  0.61071100  1
  H  2548  1  0.41100700  0.79920000  0.55265600  1
  H  2550  1  0.50944000  0.68989100  0.60131300  1
  H  2557  1  0.92287900  0.71202100  0.38424600  1
  H  2564  1  0.99170700  0.75558700  0.42286200  1
  H  2565  1  0.01743590  0.77829300  0.41475200  1
  H  2566  1  0.98808900  0.78141100  0.36355900  1
  H  2567  1  0.92329300  0.72775900  0.43807500  1
  H  2570  1  0.94061400  0.76347800  0.36886500  1
  H  2571  1  0.96267800  0.75757900  0.35401000  1
  H  2572  1  0.93889100  0.73126900  0.36181500  1
  H  2573  1  0.96727600  0.72818800  0.36854300  1
  H  2578  1  0.91084700  0.69715300  0.42662800  1
  H  2580  1  0.00933489  0.80616600  0.37758300  1
  H  2587  1  0.17467800  0.14274000  0.02603800  1
  H  2594  1  0.24153300  0.18190000  0.98116600  1
  H  2595  1  0.26640900  0.17401100  0.95774800  1
  H  2596  1  0.23651400  0.12303800  0.95444800  1
  H  2597  1  0.17432800  0.19677400  0.01100300  1
  H  2600  1  0.18979800  0.12819700  0.97387300  1
  H  2601  1  0.21206500  0.11317500  0.97879100  1
  H  2602  1  0.18973200  0.12058400  0.00600000  1
  H  2603  1  0.21827300  0.12722100  0.00825600  1
  H  2608  1  0.16262100  0.18509200  0.04152100  1
  H  2610  1  0.25713800  0.13782500  0.92932200  1
  H  2617  1  0.67471600  0.35369500  0.95309300  1
  H  2624  1  0.74154500  0.31444400  0.99788500  1
  H  2625  1  0.76643600  0.32228900  0.02131000  1
  H  2626  1  0.73647700  0.37323100  0.02476600  1
  H  2627  1  0.67442900  0.29960700  0.96794000  1
  H  2630  1  0.68973200  0.36806400  0.00534800  1
  H  2631  1  0.71196400  0.38313700  0.00049300  1
  H  2632  1  0.68966500  0.37579800  0.97325000  1
  H  2633  1  0.71821800  0.36920200  0.97097700  1
  H  2638  1  0.66266200  0.31129000  0.93750800  1
  H  2640  1  0.75715700  0.35842000  0.04982600  1
  H  2647  1  0.51422400  0.71332300  0.88382500  1
  H  2654  1  0.44308900  0.75613600  0.92065600  1
  H  2655  1  0.41674900  0.77808900  0.91178700  1
  H  2656  1  0.44606700  0.78003000  0.86051600  1
  H  2657  1  0.51300000  0.73127100  0.93696200  1
  H  2660  1  0.49389000  0.76334800  0.86628300  1
  H  2661  1  0.47204000  0.75614500  0.85180200  1
  H  2662  1  0.49711100  0.73092900  0.86064600  1
  H  2663  1  0.46891500  0.72731300  0.86759200  1
  H  2668  1  0.52715500  0.70086600  0.92703500  1
  H  2670  1  0.42480600  0.80515400  0.87421700  1
  H  2677  1  0.01436490  0.78301800  0.09499400  1
  H  2684  1  0.94303100  0.74025800  0.05827800  1
  H  2685  1  0.91676300  0.71826200  0.06716300  1
  H  2686  1  0.94610100  0.71641000  0.11843300  1
  H  2687  1  0.01312490  0.76486000  0.04192800  1
  H  2690  1  0.99379400  0.73317000  0.11273100  1
  H  2691  1  0.97190300  0.74046500  0.12712800  1
  H  2692  1  0.99705900  0.76561300  0.11822100  1
  H  2693  1  0.96888500  0.76922700  0.11122000  1
  H  2698  1  0.02732190  0.79530000  0.05182000  1
  H  2700  1  0.92497300  0.69120900  0.10472500  1
  H  2707  1  0.76545300  0.35358700  0.45495500  1
  H  2714  1  0.69295500  0.31698600  0.49663400  1
  H  2715  1  0.66600100  0.32594100  0.51803300  1
  H  2716  1  0.69485600  0.37737900  0.51989200  1
  H  2717  1  0.76364500  0.30059900  0.47330000  1
  H  2720  1  0.74316400  0.37162100  0.50434200  1
  H  2721  1  0.72152700  0.38593500  0.49643900  1
  H  2722  1  0.74766400  0.37689400  0.47197500  1
  H  2723  1  0.71964600  0.36985700  0.46772100  1
  H  2728  1  0.77830300  0.31044700  0.44287600  1
  H  2730  1  0.67305300  0.36422200  0.54468000  1
  H  2737  1  0.26551800  0.14244500  0.52396000  1
  H  2744  1  0.19292000  0.17910100  0.48248000  1
  H  2745  1  0.16592200  0.17019300  0.46109500  1
  H  2746  1  0.19489500  0.11880300  0.45898100  1
  H  2747  1  0.26354100  0.19551200  0.50585800  1
  H  2750  1  0.24324600  0.12459000  0.47446400  1
  H  2751  1  0.22167400  0.11019400  0.48232900  1
  H  2752  1  0.24783500  0.11917400  0.50679700  1
  H  2753  1  0.21980500  0.12613800  0.51112500  1
  H  2758  1  0.27824200  0.18564500  0.53617000  1
  H  2760  1  0.17301500  0.13199700  0.43429900  1
  H  2767  1  0.92435000  0.28457400  0.09476000  1
  H  2774  1  0.99140800  0.23990900  0.05558900  1
  H  2775  1  0.01640590  0.21657300  0.06349400  1
  H  2776  1  0.98649700  0.21318900  0.11446000  1
  H  2777  1  0.92403300  0.26954300  0.04072300  1
  H  2780  1  0.93966600  0.23248200  0.10926700  1
  H  2781  1  0.96190300  0.23742800  0.12430700  1
  H  2782  1  0.93952600  0.26460900  0.11690800  1
  H  2783  1  0.96805700  0.26690800  0.11025800  1
  H  2788  1  0.91207600  0.30001800  0.05243100  1
  H  2790  1  0.00729889  0.18815700  0.09977300  1
  H  2797  1  0.42420000  0.21159600  0.88448000  1
  H  2804  1  0.49140000  0.25624900  0.92354500  1
  H  2805  1  0.51640400  0.27956100  0.91559900  1
  H  2806  1  0.48652700  0.28283700  0.86461200  1
  H  2807  1  0.42389900  0.22679200  0.93847200  1
  H  2810  1  0.43971200  0.26358300  0.86980600  1
  H  2811  1  0.46196400  0.25854900  0.85480900  1
  H  2812  1  0.43950400  0.23142800  0.86227900  1
  H  2813  1  0.46802000  0.22911000  0.86896000  1
  H  2818  1  0.41196600  0.19625000  0.92677400  1
  H  2820  1  0.50727700  0.30791000  0.87929000  1
  H  2827  1  0.67120100  0.64218400  0.52446400  1
  H  2834  1  0.74214300  0.67932400  0.48162500  1
  H  2835  1  0.76836900  0.67059100  0.45952900  1
  H  2836  1  0.73922500  0.61926600  0.45753400  1
  H  2837  1  0.67216700  0.69536800  0.50664800  1
  H  2840  1  0.69154400  0.62481300  0.47441900  1
  H  2841  1  0.71350000  0.61039900  0.48155300  1
  H  2842  1  0.68846400  0.61910600  0.50683700  1
  H  2843  1  0.71663600  0.62613800  0.51040400  1
  H  2848  1  0.65814000  0.68527800  0.53704400  1
  H  2850  1  0.76026000  0.63310600  0.43235700  1
  H  2857  1  0.17113200  0.85426200  0.45476500  1
  H  2864  1  0.24216600  0.81707000  0.49741900  1
  H  2865  1  0.26844700  0.82575800  0.51949200  1
  H  2866  1  0.23919400  0.87703700  0.52173000  1
  H  2867  1  0.17225700  0.80100700  0.47235900  1
  H  2870  1  0.19145600  0.87146300  0.50491800  1
  H  2871  1  0.21335000  0.88595200  0.49781900  1
  H  2872  1  0.18828000  0.87730500  0.47253300  1
  H  2873  1  0.21646500  0.87034400  0.46889200  1
  H  2878  1  0.15819300  0.81110800  0.44206600  1
  H  2880  1  0.26032000  0.86316400  0.54680200  1
  H  2887  1  0.08240590  0.13065600  0.28908900  1
  H  2894  1  0.05973790  0.16850300  0.21941500  1
  H  2895  1  0.06878090  0.16276300  0.18916100  1
  H  2896  1  0.10215200  0.11533700  0.20400600  1
  H  2897  1  0.08335790  0.18549200  0.27815300  1
  H  2900  1  0.11227200  0.11951600  0.24349000  1
  H  2901  1  0.09398090  0.10322300  0.23420800  1
  H  2902  1  0.08483290  0.10914700  0.26616600  1
  H  2903  1  0.06191790  0.11402700  0.25186400  1
  H  2908  1  0.09695590  0.17308600  0.30571600  1
  H  2910  1  0.11045500  0.13187400  0.17611000  1
  H  2917  1  0.58239400  0.36546300  0.68989300  1
  H  2924  1  0.55958800  0.32766000  0.75955100  1
  H  2925  1  0.56859300  0.33338600  0.78980600  1
  H  2926  1  0.60205100  0.38078800  0.77499600  1
  H  2927  1  0.58330000  0.31063500  0.70085100  1
  H  2930  1  0.61221500  0.37660400  0.73552200  1
  H  2931  1  0.59392700  0.39291200  0.74478500  1
  H  2932  1  0.58482300  0.38698300  0.71281500  1
  H  2933  1  0.56188100  0.38213100  0.72709900  1
  H  2938  1  0.59696900  0.32304800  0.67330500  1
  H  2940  1  0.61030500  0.36424200  0.80289300  1
  H  2947  1  0.33199600  0.94887600  0.87310800  1
  H  2954  1  0.30902300  0.01909700  0.90976800  1
  H  2955  1  0.31822200  0.04923700  0.90366500  1
  H  2956  1  0.35209000  0.03366600  0.85669400  1
  H  2957  1  0.33209400  0.96058100  0.92779400  1
  H  2960  1  0.36211000  0.99422700  0.86159000  1
  H  2961  1  0.34410400  0.00329600  0.84498100  1
  H  2962  1  0.33475600  0.97145300  0.85129200  1
  H  2963  1  0.31181700  0.98586900  0.85574700  1
  H  2968  1  0.34567500  0.93280700  0.91596600  1
  H  2970  1  0.36023800  0.06178600  0.87284500  1
  H  2977  1  0.83198500  0.54737300  0.10600400  1
  H  2984  1  0.80890800  0.47717200  0.06933700  1
  H  2985  1  0.81810600  0.44702900  0.07543700  1
  H  2986  1  0.85199200  0.46259600  0.12240300  1
  H  2987  1  0.83211400  0.53568500  0.05131700  1
  H  2990  1  0.86200700  0.50203000  0.11751900  1
  H  2991  1  0.84399100  0.49296300  0.13412200  1
  H  2992  1  0.83464300  0.52480100  0.12781700  1
  H  2993  1  0.81170800  0.51038900  0.12333900  1
  H  2998  1  0.84572600  0.56344500  0.06315900  1
  H  3000  1  0.86013600  0.43448800  0.10627100  1
  H  3007  1  0.84765800  0.37174700  0.28722300  1
  H  3014  1  0.87809700  0.32652000  0.22381500  1
  H  3015  1  0.87169600  0.32877700  0.19266900  1
  H  3016  1  0.83827400  0.37787300  0.20023200  1
  H  3017  1  0.84706400  0.31605900  0.28202800  1
  H  3020  1  0.82448600  0.37856700  0.23871500  1
  H  3021  1  0.84456000  0.39337300  0.22924600  1
  H  3022  1  0.84943100  0.39078500  0.26223000  1
  H  3023  1  0.87378100  0.38405300  0.25037900  1
  H  3028  1  0.83107700  0.33085100  0.30712000  1
  H  3030  1  0.83144200  0.35878300  0.17447600  1
  H  3037  1  0.34776700  0.12444000  0.69193400  1
  H  3044  1  0.37817800  0.16971500  0.75529900  1
  H  3045  1  0.37177000  0.16749700  0.78643800  1
  H  3046  1  0.33838200  0.11837500  0.77893400  1
  H  3047  1  0.34710100  0.18012700  0.69710400  1
  H  3050  1  0.32461500  0.11762100  0.74045000  1
  H  3051  1  0.34471400  0.10284300  0.74993200  1
  H  3052  1  0.34957200  0.10541100  0.71694100  1
  H  3053  1  0.37391700  0.11216400  0.72878700  1
  H  3058  1  0.33113000  0.16532100  0.67203500  1
  H  3060  1  0.33150800  0.13751200  0.80465300  1
  H  3067  1  0.59863200  0.54551400  0.86707900  1
  H  3074  1  0.62940700  0.48133500  0.91098000  1
  H  3075  1  0.62273400  0.45027000  0.90835700  1
  H  3076  1  0.58854300  0.45866400  0.85972900  1
  H  3077  1  0.59907600  0.53945900  0.92268300  1
  H  3080  1  0.57496200  0.49722100  0.85980900  1
  H  3081  1  0.59466100  0.48789800  0.84459900  1
  H  3082  1  0.59981000  0.52082000  0.84763800  1
  H  3083  1  0.62421700  0.50876400  0.85386100  1
  H  3088  1  0.58314300  0.56485500  0.90855200  1
  H  3090  1  0.58189900  0.43265600  0.87847400  1
  H  3097  1  0.09844290  0.95066300  0.11198200  1
  H  3104  1  0.12937000  0.01478000  0.06805500  1
  H  3105  1  0.12277900  0.04585600  0.07067900  1
  H  3106  1  0.08860690  0.03751800  0.11932900  1
  H  3107  1  0.09882290  0.95670300  0.05637700  1
  H  3110  1  0.07492490  0.99898600  0.11925700  1
  H  3111  1  0.09466490  0.00827700  0.13445500  1
  H  3112  1  0.09973490  0.97535100  0.13141500  1
  H  3113  1  0.12416000  0.98736700  0.12516400  1
  H  3118  1  0.08286190  0.93131900  0.07053800  1
  H  3120  1  0.08200390  0.06351800  0.10059300  1
  H  3127  1  0.35320100  0.86489600  0.69076500  1
  H  3134  1  0.37454700  0.82793200  0.76117700  1
  H  3135  1  0.36495100  0.83409800  0.79122500  1
  H  3136  1  0.33188300  0.88131600  0.77534000  1
  H  3137  1  0.35258600  0.81017500  0.70229000  1
  H  3140  1  0.32240200  0.87645900  0.73575100  1
  H  3141  1  0.34037100  0.89295100  0.74507500  1
  H  3142  1  0.35030800  0.88666500  0.71335000  1
  H  3143  1  0.37291000  0.88201300  0.72803600  1
  H  3148  1  0.33957800  0.82204900  0.67442800  1
  H  3150  1  0.32341400  0.86551300  0.80356400  1
  H  3157  1  0.85319400  0.63144800  0.28839500  1
  H  3164  1  0.87471500  0.66834300  0.21799100  1
  H  3165  1  0.86516600  0.66218200  0.18794000  1
  H  3166  1  0.83199500  0.61499400  0.20379700  1
  H  3167  1  0.85263200  0.68615600  0.27682800  1
  H  3170  1  0.82246100  0.61986900  0.24337500  1
  H  3171  1  0.84042700  0.60336000  0.23408000  1
  H  3172  1  0.85030900  0.60965800  0.26581800  1
  H  3173  1  0.87294200  0.61427900  0.25115400  1
  H  3178  1  0.83953200  0.67428200  0.30467300  1
  H  3180  1  0.82358400  0.63081000  0.17556900  1
  H  3187  1  0.58640200  0.62558900  0.69235500  1
  H  3194  1  0.55708200  0.66976400  0.75678100  1
  H  3195  1  0.56384100  0.66699700  0.78780600  1
  H  3196  1  0.59720900  0.61805200  0.77919800  1
  H  3197  1  0.58655000  0.68119900  0.69835300  1
  H  3200  1  0.61069300  0.61824200  0.74049800  1
  H  3201  1  0.59100600  0.60311100  0.74995900  1
  H  3202  1  0.58546100  0.60618500  0.71709000  1
  H  3203  1  0.56126100  0.61255800  0.72932500  1
  H  3208  1  0.60195100  0.66701300  0.67283700  1
  H  3210  1  0.60389500  0.63629100  0.80544000  1
  H  3217  1  0.08630090  0.87061800  0.28661700  1
  H  3224  1  0.05692390  0.82635900  0.22225900  1
  H  3225  1  0.06374490  0.82906300  0.19123600  1
  H  3226  1  0.09713590  0.87801000  0.19979000  1
  H  3227  1  0.08645890  0.81500000  0.28070100  1
  H  3230  1  0.11055300  0.87790000  0.23848700  1
  H  3231  1  0.09086090  0.89301000  0.22899800  1
  H  3232  1  0.08529590  0.88998600  0.26186400  1
  H  3233  1  0.06110590  0.88358400  0.24963200  1
  H  3238  1  0.10187900  0.82921900  0.30618300  1
  H  3240  1  0.10384100  0.85975200  0.17359100  1
  H  3247  1  0.83234000  0.44903200  0.37222000  1
  H  3254  1  0.81122200  0.51914200  0.40988800  1
  H  3255  1  0.82058200  0.54927400  0.40386500  1
  H  3256  1  0.85309300  0.53384100  0.35626000  1
  H  3257  1  0.83389000  0.46019600  0.42699900  1
  H  3260  1  0.86278200  0.49425400  0.36068000  1
  H  3261  1  0.84449200  0.50364000  0.34444700  1
  H  3262  1  0.83485200  0.47182400  0.35059000  1
  H  3263  1  0.81223500  0.48639000  0.35555900  1
  H  3268  1  0.84703200  0.43249800  0.41470700  1
  H  3270  1  0.86168800  0.56196100  0.37225200  1
  H  3277  1  0.33231900  0.04730900  0.60682100  1
  H  3284  1  0.31121400  0.97719200  0.56917200  1
  H  3285  1  0.32052700  0.94706200  0.57522100  1
  H  3286  1  0.35298100  0.96249800  0.62285100  1
  H  3287  1  0.33394500  0.03612000  0.55205300  1
  H  3290  1  0.36271600  0.00208200  0.61840800  1
  H  3291  1  0.34440800  0.99271100  0.63463700  1
  H  3292  1  0.33478600  0.02452700  0.62847000  1
  H  3293  1  0.31216800  0.00996400  0.62349100  1
  H  3298  1  0.34710200  0.06381100  0.56436000  1
  H  3300  1  0.36158200  0.93437100  0.60687500  1
  H  3307  1  0.09805990  0.04542900  0.36618300  1
  H  3314  1  0.12699800  0.98145600  0.41125600  1
  H  3315  1  0.12047200  0.95037300  0.40863800  1
  H  3316  1  0.08800890  0.95849800  0.35923900  1
  H  3317  1  0.09676490  0.03987200  0.42182600  1
  H  3320  1  0.07435590  0.99711900  0.35889400  1
  H  3321  1  0.09445190  0.98762500  0.34412500  1
  H  3322  1  0.09969590  0.02053700  0.34699700  1
  H  3323  1  0.12383500  0.00846700  0.35381400  1
  H  3328  1  0.08127090  0.06515000  0.40716000  1
  H  3330  1  0.08102490  0.93241100  0.37768700  1
  H  3337  1  0.59789800  0.45070300  0.61292600  1
  H  3344  1  0.62700300  0.51464900  0.56788800  1
  H  3345  1  0.62056700  0.54574200  0.57052800  1
  H  3346  1  0.58808700  0.53764100  0.61992700  1
  H  3347  1  0.59655500  0.45629500  0.55728700  1
  H  3350  1  0.57432900  0.49904200  0.62024900  1
  H  3351  1  0.59445700  0.50849200  0.63502000  1
  H  3352  1  0.59962100  0.47557600  0.63212400  1
  H  3353  1  0.62378600  0.48761100  0.62529900  1
  H  3358  1  0.58105100  0.43100900  0.57195300  1
  H  3360  1  0.58115400  0.56373400  0.60148600  1
  C  1  1  0.89294200  0.14821700  0.39581800  1
  C  2  1  0.90980800  0.15413400  0.38413500  1
  C  3  1  0.90079300  0.15541600  0.36708700  1
  C  4  1  0.87814600  0.15018500  0.36769500  1
  C  5  1  0.86522500  0.14974400  0.35187200  1
  C  6  1  0.87514200  0.15459500  0.33528300  1
  C  7  1  0.89828700  0.15965200  0.33511700  1
  C  8  1  0.91114000  0.16020800  0.35090600  1
  C  9  1  0.93181100  0.15753400  0.39021500  1
  C  10  1  0.93673400  0.15469400  0.40836800  1
  C  11  1  0.91990800  0.14855300  0.42042800  1
  C  12  1  0.89771700  0.14563300  0.41409300  1
  C  13  1  0.85229600  0.15547600  0.39338600  1
  C  14  1  0.83456000  0.14413400  0.39823700  1
  C  15  1  0.84093000  0.12662800  0.39480800  1
  C  16  1  0.86283400  0.12667700  0.38784000  1
  C  17  1  0.82936000  0.11054500  0.39790600  1
  C  18  1  0.84050400  0.09431100  0.39442900  1
  C  19  1  0.86313800  0.09394200  0.38812100  1
  C  20  1  0.87401800  0.11041400  0.38437200  1
  C  21  1  0.85048900  0.17405500  0.39607400  1
  C  22  1  0.83069500  0.18131500  0.40386700  1
  C  23  1  0.81281600  0.16947900  0.40848000  1
  C  24  1  0.81467300  0.15093000  0.40583000  1
  C  37  1  0.87152100  0.14516400  0.38613000  1
  C  38  1  0.87463200  0.07739300  0.38563800  1
  C  39  1  0.82793800  0.20016500  0.40516200  1
  C  40  1  0.86284600  0.15289700  0.31897400  1
  C  41  1  0.92535300  0.14606900  0.43867300  1
  C  46  1  0.39296400  0.34795300  0.58320300  1
  C  47  1  0.40984200  0.34207100  0.59489200  1
  C  48  1  0.40082500  0.34079400  0.61194200  1
  C  49  1  0.37815400  0.34595700  0.61131900  1
  C  50  1  0.36521600  0.34636700  0.62713500  1
  C  51  1  0.37513700  0.34153500  0.64372700  1
  C  52  1  0.39829200  0.33650900  0.64390500  1
  C  53  1  0.41116600  0.33600000  0.62812500  1
  C  54  1  0.43186400  0.33873300  0.58882700  1
  C  55  1  0.43679300  0.34158300  0.57067700  1
  C  56  1  0.41995300  0.34767600  0.55860400  1
  C  57  1  0.39775000  0.35056000  0.56493200  1
  C  58  1  0.35233300  0.34063100  0.58561300  1
  C  59  1  0.33457200  0.35194800  0.58076400  1
  C  60  1  0.34088600  0.36946200  0.58422700  1
  C  61  1  0.36279400  0.36944300  0.59118600  1
  C  62  1  0.32927200  0.38553000  0.58115300  1
  C  63  1  0.34037800  0.40177900  0.58463900  1
  C  64  1  0.36301100  0.40217900  0.59094500  1
  C  65  1  0.37392800  0.38572000  0.59468800  1
  C  66  1  0.35058400  0.32205200  0.58289200  1
  C  67  1  0.33082000  0.31477100  0.57507100  1
  C  68  1  0.31289700  0.32657700  0.57049300  1
  C  69  1  0.31469000  0.34512400  0.57318700  1
  C  82  1  0.37152700  0.35096900  0.59288100  1
  C  83  1  0.37447200  0.41874200  0.59344000  1
  C  84  1  0.32816300  0.29592400  0.57365800  1
  C  85  1  0.36281700  0.34320900  0.66002800  1
  C  86  1  0.42539000  0.35014000  0.54035500  1
  C  91  1  0.14360700  0.84301900  0.88956900  1
  C  92  1  0.15998500  0.85459700  0.89646600  1
  C  93  1  0.15064600  0.87151100  0.89808800  1
  C  94  1  0.12828400  0.87089000  0.89214800  1
  C  95  1  0.11513700  0.88658800  0.89183400  1
  C  96  1  0.12455800  0.90311500  0.89745000  1
  C  97  1  0.14743700  0.90330900  0.90323400  1
  C  98  1  0.16048900  0.88761800  0.90371800  1
  C  99  1  0.18187300  0.84855000  0.90036000  1
  C  100  1  0.18715400  0.83052700  0.89709600  1
  C  101  1  0.17078400  0.81857100  0.89005000  1
  C  102  1  0.14871800  0.82487300  0.88654800  1
  C  103  1  0.10257000  0.84474900  0.89541800  1
  C  104  1  0.08568600  0.84004700  0.88323500  1
  C  105  1  0.09298000  0.84434200  0.86614400  1
  C  106  1  0.11465400  0.85165900  0.86731800  1
  C  107  1  0.08253900  0.84166200  0.84951000  1
  C  108  1  0.09443900  0.84622000  0.83388700  1
  C  109  1  0.11659600  0.85348100  0.83468400  1
  C  110  1  0.12661800  0.85618800  0.85167900  1
  C  111  1  0.09962100  0.84152700  0.91381200  1
  C  112  1  0.07946900  0.83344300  0.92007700  1
  C  113  1  0.06249900  0.82892100  0.90739700  1
  C  114  1  0.06553400  0.83205100  0.88901400  1
  C  127  1  0.12223200  0.85263500  0.88615300  1
  C  128  1  0.12925500  0.85624100  0.81876100  1
  C  129  1  0.07542200  0.83192000  0.93876400  1
  C  130  1  0.11210600  0.91935100  0.89565700  1
  C  131  1  0.17644200  0.80041800  0.88729400  1
  C  136  1  0.64375900  0.65322100  0.08957400  1
  C  137  1  0.66013900  0.64162400  0.08271000  1
  C  138  1  0.65079100  0.62471100  0.08111000  1
  C  139  1  0.62841600  0.62535500  0.08701700  1
  C  140  1  0.61524300  0.60966900  0.08731300  1
  C  141  1  0.62464100  0.59313700  0.08168700  1
  C  142  1  0.64751600  0.59292700  0.07589000  1
  C  143  1  0.66059700  0.60860600  0.07543400  1
  C  144  1  0.68202700  0.64766300  0.07879800  1
  C  145  1  0.68730400  0.66569600  0.08200900  1
  C  146  1  0.67093100  0.67767300  0.08901600  1
  C  147  1  0.64887000  0.67137500  0.09254300  1
  C  148  1  0.60271800  0.65150600  0.08373500  1
  C  149  1  0.58586300  0.65625800  0.09592400  1
  C  150  1  0.59314700  0.65194200  0.11301400  1
  C  151  1  0.61480600  0.64459900  0.11183500  1
  C  152  1  0.58274300  0.65469500  0.12965200  1
  C  153  1  0.59465300  0.65015000  0.14527500  1
  C  154  1  0.61678800  0.64285100  0.14447000  1
  C  155  1  0.62678600  0.64009400  0.12747400  1
  C  156  1  0.59973300  0.65467100  0.06533500  1
  C  157  1  0.57955700  0.66271700  0.05907000  1
  C  158  1  0.56262800  0.66731100  0.07175900  1
  C  159  1  0.56570500  0.66424200  0.09014700  1
  C  172  1  0.62237800  0.64361600  0.09300000  1
  C  173  1  0.62944200  0.64007700  0.16039100  1
  C  174  1  0.57542100  0.66411500  0.04038400  1
  C  175  1  0.61216400  0.57691100  0.08346200  1
  C  176  1  0.67657300  0.69584600  0.09166800  1
  C  181  1  0.60237200  0.34468800  0.39738100  1
  C  182  1  0.58457800  0.33982400  0.38610000  1
  C  183  1  0.59082200  0.34331500  0.36857700  1
  C  184  1  0.61270600  0.35032200  0.36856400  1
  C  185  1  0.62381300  0.35380200  0.35227700  1
  C  186  1  0.61288500  0.35001300  0.33583800  1
  C  187  1  0.59027500  0.34365700  0.33625900  1
  C  188  1  0.57920100  0.34017400  0.35252400  1
  C  189  1  0.56482000  0.33206600  0.39294800  1
  C  190  1  0.56318200  0.32921300  0.41147900  1
  C  191  1  0.58114800  0.33379600  0.42324500  1
  C  192  1  0.60078300  0.34179700  0.41594200  1
  C  193  1  0.64297100  0.34235600  0.38996400  1
  C  194  1  0.65985400  0.35406400  0.39579700  1
  C  195  1  0.65081300  0.37110500  0.39710100  1
  C  196  1  0.62811000  0.37046300  0.39202400  1
  C  197  1  0.66118100  0.38730200  0.40180700  1
  C  198  1  0.64830900  0.40308100  0.40128800  1
  C  199  1  0.62513500  0.40289900  0.39631000  1
  C  200  1  0.61518600  0.38628800  0.39157300  1
  C  201  1  0.64777400  0.32408800  0.38735800  1
  C  202  1  0.66999400  0.31777500  0.39020600  1
  C  203  1  0.68683500  0.32986700  0.39625700  1
  C  204  1  0.68189500  0.34801800  0.39909400  1
  C  217  1  0.62150200  0.35201600  0.38701400  1
  C  218  1  0.61285800  0.41921800  0.39457600  1
  C  219  1  0.67544200  0.29952200  0.38776400  1
  C  220  1  0.62435000  0.35246500  0.31928000  1
  C  221  1  0.57868900  0.33218500  0.44209700  1
  C  226  1  0.10247100  0.15162700  0.58178000  1
  C  227  1  0.08467600  0.15647900  0.59306300  1
  C  228  1  0.09089000  0.15292900  0.61058000  1
  C  229  1  0.11280100  0.14597600  0.61059200  1
  C  230  1  0.12387200  0.14240500  0.62687700  1
  C  231  1  0.11293200  0.14617200  0.64331500  1
  C  232  1  0.09032300  0.15253200  0.64289700  1
  C  233  1  0.07926300  0.15604700  0.62663500  1
  C  234  1  0.06488000  0.16417300  0.58621500  1
  C  235  1  0.06321300  0.16698800  0.56768000  1
  C  236  1  0.08118000  0.16242100  0.55591000  1
  C  237  1  0.10084700  0.15446900  0.56321300  1
  C  238  1  0.14307200  0.15394400  0.58920000  1
  C  239  1  0.15994800  0.14223700  0.58335400  1
  C  240  1  0.15090100  0.12519800  0.58204200  1
  C  241  1  0.12820400  0.12584000  0.58713100  1
  C  242  1  0.16125300  0.10900300  0.57730200  1
  C  243  1  0.14837100  0.09322800  0.57780800  1
  C  244  1  0.12519300  0.09341600  0.58276900  1
  C  245  1  0.11525800  0.11002400  0.58753600  1
  C  246  1  0.14788000  0.17221200  0.59180900  1
  C  247  1  0.17010700  0.17852000  0.58898700  1
  C  248  1  0.18694600  0.16642500  0.58293900  1
  C  249  1  0.18199800  0.14827900  0.58008100  1
  C  262  1  0.12159900  0.14428600  0.59214200  1
  C  263  1  0.11288400  0.07710500  0.58446300  1
  C  264  1  0.17553300  0.19678200  0.59142100  1
  C  265  1  0.12437500  0.14369300  0.65988000  1
  C  266  1  0.07867200  0.16395700  0.53706000  1
  C  271  1  0.35179900  0.65512800  0.89336800  1
  C  272  1  0.33461700  0.64366400  0.89909000  1
  C  273  1  0.34131600  0.62617700  0.89601300  1
  C  274  1  0.36293200  0.62637600  0.88850300  1
  C  275  1  0.37434000  0.61021000  0.88508800  1
  C  276  1  0.36399400  0.59367500  0.88945000  1
  C  277  1  0.34163400  0.59386700  0.89636200  1
  C  278  1  0.33027600  0.61001300  0.89980200  1
  C  279  1  0.31497000  0.65036100  0.90714600  1
  C  280  1  0.31284100  0.66893800  0.90945800  1
  C  281  1  0.33021600  0.68090300  0.90403800  1
  C  282  1  0.34971700  0.67373300  0.89571600  1
  C  283  1  0.39271900  0.64885700  0.89475200  1
  C  284  1  0.40866200  0.65496200  0.88238100  1
  C  285  1  0.39883200  0.65524600  0.86558400  1
  C  286  1  0.37648600  0.64936000  0.86704500  1
  C  287  1  0.40824800  0.65979100  0.84897500  1
  C  288  1  0.39492100  0.65789100  0.83355800  1
  C  289  1  0.37237500  0.65151100  0.83458300  1
  C  290  1  0.36299400  0.64766900  0.85159000  1
  C  291  1  0.39853900  0.64705000  0.91292900  1
  C  292  1  0.42085200  0.65092200  0.91845500  1
  C  293  1  0.43670200  0.65725200  0.90569000  1
  C  294  1  0.43073300  0.65931700  0.88763400  1
  C  307  1  0.37096300  0.64493000  0.88586200  1
  C  308  1  0.35979000  0.64900700  0.81862500  1
  C  309  1  0.42738400  0.64911400  0.93655200  1
  C  310  1  0.37568000  0.57724200  0.88680800  1
  C  311  1  0.32725100  0.69974400  0.90515000  1
  C  316  1  0.85181100  0.84100400  0.08565500  1
  C  317  1  0.83457300  0.85243800  0.07997800  1
  C  318  1  0.84120000  0.86993600  0.08310000  1
  C  319  1  0.86282900  0.86977300  0.09058700  1
  C  320  1  0.87419800  0.88595700  0.09399100  1
  C  321  1  0.86381200  0.90247500  0.08962600  1
  C  322  1  0.84145000  0.90224600  0.08272200  1
  C  323  1  0.83012800  0.88608200  0.07929300  1
  C  324  1  0.81494500  0.84571000  0.07192000  1
  C  325  1  0.81289000  0.82713500  0.06956400  1
  C  326  1  0.83033600  0.81520100  0.07490900  1
  C  327  1  0.84980900  0.82240200  0.08324700  1
  C  328  1  0.89271100  0.84737900  0.08427900  1
  C  329  1  0.90867900  0.84129000  0.09663900  1
  C  330  1  0.89884800  0.84094200  0.11343500  1
  C  331  1  0.87648400  0.84678800  0.11198600  1
  C  332  1  0.90827400  0.83637900  0.13003600  1
  C  333  1  0.89493300  0.83821100  0.14545400  1
  C  334  1  0.87236300  0.84453900  0.14443800  1
  C  335  1  0.86296900  0.84838600  0.12743600  1
  C  336  1  0.89852200  0.84923300  0.06610500  1
  C  337  1  0.92083800  0.84539300  0.06056400  1
  C  338  1  0.93671500  0.83908700  0.07332000  1
  C  339  1  0.93076600  0.83699700  0.09137600  1
  C  352  1  0.87093800  0.85123300  0.09317600  1
  C  353  1  0.85976800  0.84700300  0.16039800  1
  C  354  1  0.92734000  0.84718500  0.04245800  1
  C  355  1  0.87546300  0.91892700  0.09225900  1
  C  356  1  0.82746900  0.79635000  0.07371200  1
  C  361  1  0.10258800  0.84827700  0.58471200  1
  C  362  1  0.08622900  0.84142400  0.59633300  1
  C  363  1  0.09555300  0.83994800  0.61326200  1
  C  364  1  0.11788900  0.84595200  0.61262900  1
  C  365  1  0.13101600  0.84634800  0.62834200  1
  C  366  1  0.12161400  0.84072000  0.64487600  1
  C  367  1  0.09874900  0.83490300  0.64507300  1
  C  368  1  0.08571500  0.83434000  0.62937700  1
  C  369  1  0.06437800  0.83737500  0.59030200  1
  C  370  1  0.05909700  0.84046400  0.57225100  1
  C  371  1  0.07543300  0.84747500  0.56024700  1
  C  372  1  0.09747300  0.85111600  0.56653400  1
  C  373  1  0.14364600  0.84253300  0.58653400  1
  C  374  1  0.16047700  0.85471800  0.58172000  1
  C  375  1  0.15312000  0.87182900  0.58586500  1
  C  376  1  0.13145200  0.87067900  0.59320100  1
  C  377  1  0.16353500  0.88845200  0.58304500  1
  C  378  1  0.15160400  0.90409800  0.58746200  1
  C  379  1  0.12943900  0.90333300  0.59470500  1
  C  380  1  0.11943600  0.88635000  0.59754900  1
  C  381  1  0.14669700  0.82411500  0.58349000  1
  C  382  1  0.16689200  0.81783600  0.57548000  1
  C  383  1  0.18379400  0.83052700  0.57083200  1
  C  384  1  0.18065700  0.84892800  0.57377500  1
  C  397  1  0.12393800  0.85183000  0.59432700  1
  C  398  1  0.11681200  0.91928900  0.59736800  1
  C  399  1  0.17108600  0.79915000  0.57414600  1
  C  400  1  0.13403700  0.84250100  0.66113000  1
  C  401  1  0.06972000  0.85007300  0.54208000  1
  C  406  1  0.60253500  0.64802200  0.39439300  1
  C  407  1  0.58616200  0.65484200  0.38276400  1
  C  408  1  0.59548700  0.65631400  0.36583400  1
  C  409  1  0.61785000  0.65037600  0.36648400  1
  C  410  1  0.63099500  0.65001200  0.35078100  1
  C  411  1  0.62159000  0.65561900  0.33424200  1
  C  412  1  0.59871300  0.66140900  0.33403200  1
  C  413  1  0.58565500  0.66192300  0.34971600  1
  C  414  1  0.56429000  0.65883700  0.38878300  1
  C  415  1  0.55900900  0.65574400  0.40683400  1
  C  416  1  0.57536300  0.64878100  0.41884900  1
  C  417  1  0.59741600  0.64517100  0.41256700  1
  C  418  1  0.64358400  0.65382700  0.39259200  1
  C  419  1  0.66044700  0.64166500  0.39739500  1
  C  420  1  0.65313900  0.62454600  0.39322100  1
  C  421  1  0.63146500  0.62566900  0.38589500  1
  C  422  1  0.66359500  0.60793500  0.39601800  1
  C  423  1  0.65169300  0.59227400  0.39159700  1
  C  424  1  0.62951500  0.59301400  0.38437600  1
  C  425  1  0.61948100  0.60998500  0.38153900  1
  C  426  1  0.64656800  0.67224300  0.39568700  1
  C  427  1  0.66666667  0.67854500  0.40373500  1
  C  428  1  0.68367800  0.66588000  0.40834100  1
  C  429  1  0.68061500  0.64748100  0.40533500  1
  C  442  1  0.62390100  0.64450700  0.38478800  1
  C  443  1  0.61690600  0.57704200  0.38174600  1
  C  444  1  0.67081600  0.69723600  0.40518600  1
  C  445  1  0.63404100  0.65386300  0.31800000  1
  C  446  1  0.56966700  0.64620700  0.43702300  1
  C  451  1  0.85287800  0.15225400  0.08910900  1
  C  452  1  0.83770400  0.13985600  0.08192000  1
  C  453  1  0.84797200  0.12322800  0.08154700  1
  C  454  1  0.86981900  0.12483000  0.08849000  1
  C  455  1  0.88359200  0.10955200  0.09029000  1
  C  456  1  0.87490400  0.09255300  0.08555200  1
  C  457  1  0.85286100  0.09135700  0.07818700  1
  C  458  1  0.83930600  0.10662600  0.07612100  1
  C  459  1  0.81586700  0.14493500  0.07669300  1
  C  460  1  0.80935800  0.16285600  0.07891200  1
  C  461  1  0.82445900  0.17565300  0.08623800  1
  C  462  1  0.84653700  0.17030400  0.09107500  1
  C  463  1  0.89422700  0.15167000  0.08475000  1
  C  464  1  0.91025600  0.15744800  0.09718500  1
  C  465  1  0.90236500  0.15363800  0.11421900  1
  C  466  1  0.88109300  0.14564400  0.11276200  1
  C  467  1  0.91208400  0.15707100  0.13098700  1
  C  468  1  0.89993200  0.15244500  0.14646000  1
  C  469  1  0.87821800  0.14443800  0.14536400  1
  C  470  1  0.86881800  0.14112700  0.12825700  1
  C  471  1  0.89793100  0.15417800  0.06633000  1
  C  472  1  0.91798800  0.16258800  0.06028400  1
  C  473  1  0.93410500  0.16816200  0.07323900  1
  C  474  1  0.93030800  0.16576300  0.09164300  1
  C  487  1  0.87452200  0.14355900  0.09377800  1
  C  488  1  0.86549700  0.14124500  0.16114800  1
  C  489  1  0.92283000  0.16347300  0.04166200  1
  C  490  1  0.88755100  0.07671200  0.08838000  1
  C  491  1  0.81748600  0.19363500  0.08804800  1
  C  496  1  0.35280400  0.34388400  0.88989600  1
  C  497  1  0.33761600  0.35627700  0.89707600  1
  C  498  1  0.34785500  0.37291700  0.89741400  1
  C  499  1  0.36970700  0.37132300  0.89048000  1
  C  500  1  0.38347200  0.38660600  0.88868400  1
  C  501  1  0.37479100  0.40359600  0.89346100  1
  C  502  1  0.35275100  0.40478100  0.90083300  1
  C  503  1  0.33920100  0.38950600  0.90288800  1
  C  504  1  0.31579100  0.35118300  0.90231800  1
  C  505  1  0.30930700  0.33325200  0.90012300  1
  C  506  1  0.32442500  0.32046100  0.89280800  1
  C  507  1  0.34649100  0.32582600  0.88795600  1
  C  508  1  0.39415400  0.34450600  0.89422800  1
  C  509  1  0.41015900  0.33869900  0.88178700  1
  C  510  1  0.40225600  0.34250600  0.86475500  1
  C  511  1  0.38098700  0.35050100  0.86621900  1
  C  512  1  0.41194400  0.33902800  0.84798300  1
  C  513  1  0.39977100  0.34363600  0.83251400  1
  C  514  1  0.37806800  0.35165800  0.83361900  1
  C  515  1  0.36868600  0.35499200  0.85072800  1
  C  516  1  0.39790700  0.34205900  0.91265000  1
  C  517  1  0.41800200  0.33370400  0.91869200  1
  C  518  1  0.43408100  0.32807900  0.90572900  1
  C  519  1  0.43023200  0.33041400  0.88732200  1
  C  532  1  0.37443100  0.35259400  0.88520500  1
  C  533  1  0.36534500  0.35485900  0.81783900  1
  C  534  1  0.42294000  0.33293300  0.93730400  1
  C  535  1  0.38744100  0.41944400  0.89066900  1
  C  536  1  0.31747700  0.30247100  0.89102100  1
  C  541  1  0.39441400  0.65152100  0.58263200  1
  C  542  1  0.41157400  0.65724200  0.59411700  1
  C  543  1  0.40482800  0.65419700  0.61159800  1
  C  544  1  0.38320400  0.64669900  0.61139200  1
  C  545  1  0.37175500  0.64338100  0.62756800  1
  C  546  1  0.38207900  0.64779600  0.64410300  1
  C  547  1  0.40446100  0.65466100  0.64390200  1
  C  548  1  0.41585200  0.65802700  0.62775900  1
  C  549  1  0.43124800  0.66528000  0.58744800  1
  C  550  1  0.43342800  0.66758600  0.56887600  1
  C  551  1  0.41607000  0.66219100  0.55688500  1
  C  552  1  0.39654100  0.65388200  0.56403000  1
  C  553  1  0.35347600  0.65297500  0.58884700  1
  C  554  1  0.33753100  0.64061400  0.58272000  1
  C  555  1  0.34733000  0.62380700  0.58245500  1
  C  556  1  0.36966500  0.62523600  0.58838100  1
  C  557  1  0.33789600  0.60722000  0.57785700  1
  C  558  1  0.35119600  0.59178500  0.57972500  1
  C  559  1  0.37373600  0.59277300  0.58611900  1
  C  560  1  0.38313800  0.60976100  0.59002100  1
  C  561  1  0.34767800  0.67116500  0.59059500  1
  C  562  1  0.32540200  0.67671700  0.58661500  1
  C  563  1  0.30955600  0.66395500  0.58027600  1
  C  564  1  0.31549200  0.64588600  0.57828500  1
  C  577  1  0.37520600  0.64405500  0.59282100  1
  C  578  1  0.38626100  0.57678100  0.58858700  1
  C  579  1  0.31887500  0.69482700  0.58833400  1
  C  580  1  0.37039100  0.64524200  0.66055800  1
  C  581  1  0.41909600  0.66334000  0.53804700  1
  C  586  1  0.89429400  0.84461000  0.39637200  1
  C  587  1  0.91146300  0.83890700  0.38488700  1
  C  588  1  0.90474700  0.84200000  0.36740700  1
  C  589  1  0.88309600  0.84944800  0.36761300  1
  C  590  1  0.87168300  0.85283700  0.35143600  1
  C  591  1  0.88202400  0.84844600  0.33490100  1
  C  592  1  0.90440700  0.84158300  0.33510100  1
  C  593  1  0.91578500  0.83819500  0.35124600  1
  C  594  1  0.93118600  0.83094700  0.39155900  1
  C  595  1  0.93339400  0.82868600  0.41013400  1
  C  596  1  0.91603200  0.83406200  0.42212700  1
  C  597  1  0.89645900  0.84230600  0.41497800  1
  C  598  1  0.85336100  0.84313600  0.39013600  1
  C  599  1  0.83740100  0.85548000  0.39627700  1
  C  600  1  0.84718300  0.87229400  0.39656200  1
  C  601  1  0.86951800  0.87088500  0.39062900  1
  C  602  1  0.83774100  0.88886900  0.40119600  1
  C  603  1  0.85104000  0.90431100  0.39937400  1
  C  604  1  0.87358700  0.90334100  0.39299300  1
  C  605  1  0.88298600  0.88636600  0.38902900  1
  C  606  1  0.84758400  0.82494500  0.38836200  1
  C  607  1  0.82529800  0.81937900  0.39228900  1
  C  608  1  0.80942700  0.83212500  0.39862400  1
  C  609  1  0.81535200  0.85019200  0.40066000  1
  C  622  1  0.87508600  0.85207400  0.38618200  1
  C  623  1  0.88611800  0.91934000  0.39057500  1
  C  624  1  0.81880600  0.80126200  0.39054100  1
  C  625  1  0.87035600  0.85101700  0.31843900  1
  C  626  1  0.91910600  0.83299900  0.44096000  1
  C  631  1  0.64397900  0.34304200  0.08643100  1
  C  632  1  0.66002100  0.35549900  0.08072300  1
  C  633  1  0.65216900  0.37251100  0.08466500  1
  C  634  1  0.63091100  0.37101700  0.09267300  1
  C  635  1  0.61862700  0.38648600  0.09725000  1
  C  636  1  0.62799200  0.40360800  0.09396000  1
  C  637  1  0.64970200  0.40474600  0.08595000  1
  C  638  1  0.66186600  0.38929500  0.08127100  1
  C  639  1  0.68000600  0.35000400  0.07227700  1
  C  640  1  0.68371700  0.33161800  0.06966500  1
  C  641  1  0.66758600  0.31864400  0.07516800  1
  C  642  1  0.64759700  0.32464300  0.08370900  1
  C  643  1  0.60265700  0.34747300  0.08584600  1
  C  644  1  0.58741500  0.34024900  0.09817100  1
  C  645  1  0.59763100  0.33975600  0.11481900  1
  C  646  1  0.61953500  0.34660500  0.11329900  1
  C  647  1  0.58887900  0.33426400  0.13137200  1
  C  648  1  0.60237300  0.33623100  0.14668900  1
  C  649  1  0.62445000  0.34354300  0.14558600  1
  C  650  1  0.63324100  0.34832100  0.12862900  1
  C  651  1  0.59638000  0.34956800  0.06779600  1
  C  652  1  0.57429300  0.34483400  0.06236900  1
  C  653  1  0.55912400  0.33747300  0.07509500  1
  C  654  1  0.56557000  0.33512000  0.09301400  1
  C  667  1  0.62429600  0.35202900  0.09461400  1
  C  668  1  0.63698200  0.34634000  0.16149300  1
  C  669  1  0.56739600  0.34674600  0.04437500  1
  C  670  1  0.61520100  0.41936300  0.09712800  1
  C  671  1  0.67233200  0.30002100  0.07406100  1
  C  676  1  0.14394600  0.15324200  0.89268700  1
  C  677  1  0.16001500  0.14079900  0.89837700  1
  C  678  1  0.15220700  0.12378100  0.89440500  1
  C  679  1  0.13094000  0.12525700  0.88640900  1
  C  680  1  0.11866700  0.10977800  0.88184600  1
  C  681  1  0.12805000  0.09266400  0.88514000  1
  C  682  1  0.14975500  0.09154500  0.89316500  1
  C  683  1  0.16191200  0.10700500  0.89782500  1
  C  684  1  0.17998500  0.14631300  0.90683100  1
  C  685  1  0.18365700  0.16470000  0.90945800  1
  C  686  1  0.16748000  0.17766100  0.90400600  1
  C  687  1  0.14751600  0.17164200  0.89544200  1
  C  688  1  0.10262900  0.14876100  0.89325100  1
  C  689  1  0.08738400  0.15597700  0.88092500  1
  C  690  1  0.09761200  0.15649800  0.86428100  1
  C  691  1  0.11952000  0.14966000  0.86580600  1
  C  692  1  0.08886900  0.16200100  0.84772900  1
  C  693  1  0.10238500  0.16006700  0.83242000  1
  C  694  1  0.12447600  0.15278500  0.83353000  1
  C  695  1  0.13326400  0.14801000  0.85049000  1
  C  696  1  0.09634700  0.14665300  0.91129800  1
  C  697  1  0.07426400  0.15139100  0.91672800  1
  C  698  1  0.05908500  0.15873400  0.90399800  1
  C  699  1  0.06552900  0.16108500  0.88607800  1
  C  712  1  0.12428400  0.14423700  0.88448900  1
  C  713  1  0.13702100  0.15000500  0.81762700  1
  C  714  1  0.06738200  0.14951200  0.93472900  1
  C  715  1  0.11527900  0.07690100  0.88197000  1
  C  716  1  0.17217900  0.19629100  0.90514800  1
  C  721  1  0.79738600  0.22076200  0.41100800  1
  C  722  1  0.78766700  0.23194900  0.42404400  1
  C  723  1  0.76998800  0.24398400  0.41986100  1
  C  724  1  0.76089800  0.24430400  0.40218900  1
  C  725  1  0.77161400  0.23376800  0.38876600  1
  C  726  1  0.78914600  0.22193200  0.39334400  1
  C  728  1  0.74267600  0.25580400  0.39663500  1
  C  729  1  0.72458300  0.26053800  0.40805200  1
  C  730  1  0.70793100  0.27269600  0.40256400  1
  C  731  1  0.70822100  0.28003600  0.38515400  1
  C  732  1  0.72494200  0.27400500  0.37313800  1
  C  733  1  0.74166700  0.26171600  0.37854300  1
  C  738  1  0.75847200  0.25500700  0.36537400  1
  C  739  1  0.76453200  0.23533700  0.36970200  1
  C  751  1  0.29758700  0.27539000  0.56784100  1
  C  752  1  0.28791300  0.26410900  0.55486400  1
  C  753  1  0.27020400  0.25211500  0.55908800  1
  C  754  1  0.26104200  0.25192800  0.57673800  1
  C  755  1  0.27169200  0.26257000  0.59010800  1
  C  756  1  0.28925900  0.27436000  0.58549200  1
  C  758  1  0.24280400  0.24046100  0.58233200  1
  C  759  1  0.22476500  0.23562500  0.57090500  1
  C  760  1  0.20809600  0.22350100  0.57644300  1
  C  761  1  0.20836400  0.21625600  0.59389100  1
  C  762  1  0.22504500  0.22236700  0.60589900  1
  C  763  1  0.24174200  0.23466500  0.60046100  1
  C  768  1  0.25847900  0.24149400  0.61362400  1
  C  769  1  0.26452800  0.26113800  0.60916500  1
  C  781  1  0.04523700  0.82544800  0.95946600  1
  C  782  1  0.03628200  0.81200100  0.97056000  1
  C  783  1  0.01962800  0.81579000  0.98360200  1
  C  784  1  0.01075800  0.83347500  0.98504300  1
  C  785  1  0.02070500  0.84726000  0.97450300  1
  C  786  1  0.03724800  0.84307900  0.96167300  1
  C  788  1  0.99344100  0.83862900  0.99755100  1
  C  789  1  0.97553600  0.82712200  0.00251100  1
  C  790  1  0.95950400  0.83230000  0.01530900  1
  C  791  1  0.96032000  0.84946100  0.02317500  1
  C  792  1  0.97694800  0.86155300  0.01716200  1
  C  793  1  0.99298900  0.85648800  0.00417900  1
  C  798  1  0.00947600  0.86981300  0.99728300  1
  C  799  1  0.01399000  0.86628600  0.97719500  1
  C  811  1  0.54525900  0.67060100  0.01961400  1
  C  812  1  0.53630800  0.68409100  0.00856900  1
  C  813  1  0.51968300  0.68034300  0.99549200  1
  C  814  1  0.51082100  0.66266300  0.99397800  1
  C  815  1  0.52078800  0.64883600  0.00445300  1
  C  816  1  0.53731700  0.65297100  0.01730900  1
  C  818  1  0.49351900  0.65755200  0.98144100  1
  C  819  1  0.47559900  0.66906900  0.97653500  1
  C  820  1  0.45955600  0.66393100  0.96372900  1
  C  821  1  0.46037400  0.64679800  0.95580800  1
  C  822  1  0.47701700  0.63468900  0.96176300  1
  C  823  1  0.49307600  0.63971700  0.97474500  1
  C  828  1  0.50958100  0.62637600  0.98157900  1
  C  829  1  0.51408900  0.62981900  0.00168300  1
  C  841  1  0.20114500  0.77831100  0.56746800  1
  C  842  1  0.20999900  0.76731100  0.55389900  1
  C  843  1  0.22661700  0.75419100  0.55752200  1
  C  844  1  0.23556500  0.75256500  0.57516400  1
  C  845  1  0.22570200  0.76299600  0.58907200  1
  C  846  1  0.20920000  0.77591500  0.58505400  1
  C  848  1  0.25283600  0.73995000  0.58016200  1
  C  849  1  0.27068000  0.73503400  0.56857300  1
  C  850  1  0.28667000  0.72214100  0.57360300  1
  C  851  1  0.28591600  0.71416300  0.59071000  1
  C  852  1  0.26934800  0.72011300  0.60288900  1
  C  853  1  0.25332800  0.73316600  0.59796300  1
  C  858  1  0.23691900  0.73998600  0.61138600  1
  C  859  1  0.23249200  0.76012000  0.60805300  1
  C  871  1  0.70094300  0.71800000  0.41179600  1
  C  872  1  0.70981800  0.72906000  0.42530500  1
  C  873  1  0.72648900  0.74211900  0.42161600  1
  C  874  1  0.73546700  0.74361900  0.40397200  1
  C  875  1  0.72560200  0.73311400  0.39012100  1
  C  876  1  0.70904100  0.72026200  0.39420300  1
  C  878  1  0.75276900  0.75618400  0.39890700  1
  C  879  1  0.77059800  0.76116600  0.41048200  1
  C  880  1  0.78660500  0.77402000  0.40538600  1
  C  881  1  0.78584300  0.78192600  0.38824600  1
  C  882  1  0.76928400  0.77591500  0.37609100  1
  C  883  1  0.75328100  0.76286800  0.38106800  1
  C  888  1  0.73689000  0.75596900  0.36767100  1
  C  889  1  0.73243000  0.73586100  0.37113200  1
  C  901  1  0.95246200  0.17036100  0.02049700  1
  C  902  1  0.96083500  0.18403500  0.00938700  1
  C  903  1  0.97690600  0.18053500  0.99581500  1
  C  904  1  0.98577300  0.16290900  0.99380200  1
  C  905  1  0.97642800  0.14891100  0.00440900  1
  C  906  1  0.96048200  0.15281100  0.01778800  1
  C  908  1  0.00243900  0.15802000  0.98065500  1
  C  909  1  0.02011500  0.16962600  0.97541200  1
  C  910  1  0.03560700  0.16466500  0.96212000  1
  C  911  1  0.03440900  0.14765400  0.95397600  1
  C  912  1  0.01796700  0.13547900  0.96012100  1
  C  913  1  0.00253800  0.14029800  0.97365300  1
  C  918  1  0.98644500  0.12682500  0.98084100  1
  C  919  1  0.98305000  0.12995600  0.00113700  1
  C  931  1  0.45253800  0.32605100  0.95853200  1
  C  932  1  0.46090200  0.31234900  0.96961200  1
  C  933  1  0.47692600  0.31582300  0.98322500  1
  C  934  1  0.48577400  0.33344800  0.98530000  1
  C  935  1  0.47640900  0.34747300  0.97474100  1
  C  936  1  0.46049700  0.34360200  0.96132800  1
  C  938  1  0.50241800  0.33830500  0.99847700  1
  C  939  1  0.52011500  0.32670000  0.00367600  1
  C  940  1  0.53561400  0.33163600  0.01697100  1
  C  941  1  0.53440800  0.34862500  0.02515400  1
  C  942  1  0.51794200  0.36080400  0.01905900  1
  C  943  1  0.50249700  0.35600700  0.00553000  1
  C  948  1  0.48637700  0.36948600  0.99839100  1
  C  949  1  0.48299700  0.36642400  0.97808400  1
  C  961  1  0.29696600  0.72053900  0.91110500  1
  C  962  1  0.28747100  0.73183800  0.92414900  1
  C  963  1  0.27003200  0.74409000  0.91996600  1
  C  964  1  0.26097200  0.74453100  0.90228800  1
  C  965  1  0.27142500  0.73382900  0.88887100  1
  C  966  1  0.28870300  0.72177100  0.89345100  1
  C  968  1  0.24309000  0.75633100  0.89670800  1
  C  969  1  0.22505300  0.76129600  0.90808000  1
  C  970  1  0.20871200  0.77369400  0.90255500  1
  C  971  1  0.20930300  0.78106600  0.88516700  1
  C  972  1  0.22598400  0.77489300  0.87320200  1
  C  973  1  0.24235700  0.76232400  0.87863000  1
  C  978  1  0.25901200  0.75532900  0.86549000  1
  C  979  1  0.26443200  0.73553700  0.86979700  1
  C  991  1  0.79711100  0.77569000  0.06774100  1
  C  992  1  0.78755900  0.76437900  0.05473400  1
  C  993  1  0.77002900  0.75222000  0.05894300  1
  C  994  1  0.76094100  0.75187900  0.07661300  1
  C  995  1  0.77142700  0.76260100  0.08999800  1
  C  996  1  0.78880000  0.77456200  0.08539100  1
  C  998  1  0.74302200  0.74012800  0.08222900  1
  C  999  1  0.72499400  0.73512600  0.07086500  1
  C  1000  1  0.70867700  0.72271600  0.07640700  1
  C  1001  1  0.70933700  0.71532100  0.09378300  1
  C  1002  1  0.72599900  0.72153700  0.10574300  1
  C  1003  1  0.74229800  0.73416600  0.10031600  1
  C  1008  1  0.75892800  0.74120800  0.11345200  1
  C  1009  1  0.76439500  0.76097900  0.10907000  1
  C  1021  1  0.54795400  0.32636100  0.46241800  1
  C  1022  1  0.53809200  0.31341400  0.47363200  1
  C  1023  1  0.52024100  0.31768500  0.48547500  1
  C  1024  1  0.51114300  0.33535700  0.48558000  1
  C  1025  1  0.52194700  0.34869000  0.47498600  1
  C  1026  1  0.53965200  0.34402600  0.46335000  1
  C  1028  1  0.49280300  0.34100800  0.49691200  1
  C  1029  1  0.47467700  0.32963200  0.50165700  1
  C  1030  1  0.45793600  0.33521800  0.51369500  1
  C  1031  1  0.45822100  0.35267100  0.52094000  1
  C  1032  1  0.47497200  0.36463900  0.51487500  1
  C  1033  1  0.49175400  0.35914800  0.50267600  1
  C  1038  1  0.50860600  0.37226500  0.49593900  1
  C  1039  1  0.51483200  0.36776200  0.47633900  1
  C  1051  1  0.04792500  0.16970700  0.51662100  1
  C  1052  1  0.03804200  0.18268400  0.50545500  1
  C  1053  1  0.02022300  0.17842600  0.49357600  1
  C  1054  1  0.01116300  0.16074300  0.49340900  1
  C  1055  1  0.02202800  0.14737900  0.50392500  1
  C  1056  1  0.03971800  0.15202400  0.51558500  1
  C  1058  1  0.99282500  0.15511000  0.48206600  1
  C  1059  1  0.97465500  0.16647800  0.47740400  1
  C  1060  1  0.95789000  0.16091600  0.46537700  1
  C  1061  1  0.95819100  0.14349200  0.45806900  1
  C  1062  1  0.97498600  0.13151900  0.46405500  1
  C  1063  1  0.99180300  0.13699200  0.47623200  1
  C  1068  1  0.00870900  0.12387600  0.48288400  1
  C  1069  1  0.01496500  0.12830000  0.50249400  1
  C  1081  1  0.70213100  0.27901500  0.06714000  1
  C  1082  1  0.71055400  0.26794000  0.05346000  1
  C  1083  1  0.72670100  0.25442500  0.05695200  1
  C  1084  1  0.73560000  0.25244600  0.07457300  1
  C  1085  1  0.72620800  0.26302000  0.08857600  1
  C  1086  1  0.71019500  0.27634700  0.08468200  1
  C  1088  1  0.75230100  0.23933200  0.07946100  1
  C  1089  1  0.77000700  0.23414500  0.06785900  1
  C  1090  1  0.78553900  0.22088300  0.07281900  1
  C  1091  1  0.78440000  0.21276800  0.08984300  1
  C  1092  1  0.76792000  0.21885600  0.10201400  1
  C  1093  1  0.75241800  0.23232800  0.09718300  1
  C  1098  1  0.73629100  0.23947500  0.11065400  1
  C  1099  1  0.73284900  0.25976500  0.10753000  1
  C  1111  1  0.20198100  0.21724400  0.91208400  1
  C  1112  1  0.21044600  0.22833500  0.92573400  1
  C  1113  1  0.22665200  0.24179700  0.92220800  1
  C  1114  1  0.23556800  0.24370100  0.90458600  1
  C  1115  1  0.22615400  0.23310500  0.89061200  1
  C  1116  1  0.21007100  0.21983900  0.89453600  1
  C  1118  1  0.25231100  0.25677000  0.89966200  1
  C  1119  1  0.27001500  0.26197900  0.91125700  1
  C  1120  1  0.28557000  0.27521200  0.90626700  1
  C  1121  1  0.28441800  0.28330900  0.88923400  1
  C  1122  1  0.26794400  0.27719800  0.87707100  1
  C  1123  1  0.25244500  0.26373000  0.88192200  1
  C  1128  1  0.23632300  0.25655900  0.86846200  1
  C  1129  1  0.23282300  0.23628500  0.87165100  1
  C  1141  1  0.44935700  0.66947500  0.51731800  1
  C  1142  1  0.45880500  0.68257700  0.50605900  1
  C  1143  1  0.47626900  0.67848200  0.49379800  1
  C  1144  1  0.48539800  0.66082800  0.49329300  1
  C  1145  1  0.47502800  0.64735800  0.50398100  1
  C  1146  1  0.45771400  0.65185100  0.51604100  1
  C  1148  1  0.50328100  0.65532400  0.48144800  1
  C  1149  1  0.52124600  0.66675300  0.47644800  1
  C  1150  1  0.53754800  0.66130400  0.46398000  1
  C  1151  1  0.53693200  0.64395400  0.45651000  1
  C  1152  1  0.52033900  0.63193300  0.46271900  1
  C  1153  1  0.50405000  0.63726900  0.47539600  1
  C  1158  1  0.48748800  0.62406200  0.48240600  1
  C  1159  1  0.48211200  0.62831100  0.50221800  1
  C  1171  1  0.94937600  0.82694000  0.46179500  1
  C  1172  1  0.95884100  0.81381000  0.47301600  1
  C  1173  1  0.97627300  0.81789300  0.48530800  1
  C  1174  1  0.98536600  0.83555700  0.48587200  1
  C  1175  1  0.97493700  0.84905500  0.47525600  1
  C  1176  1  0.95764200  0.84457900  0.46317100  1
  C  1178  1  0.00324900  0.84103900  0.49772700  1
  C  1179  1  0.02125800  0.82961900  0.50264500  1
  C  1180  1  0.03759100  0.83504600  0.51509700  1
  C  1181  1  0.03696500  0.85236700  0.52262300  1
  C  1182  1  0.02032700  0.86439200  0.51649300  1
  C  1183  1  0.00399700  0.85907500  0.50384100  1
  C  1188  1  0.98738000  0.87228100  0.49691500  1
  C  1189  1  0.98196900  0.86810700  0.47709100  1
  C  1201  1  0.86191600  0.15874000  0.28671600  1
  C  1202  1  0.86142400  0.17260500  0.27395300  1
  C  1203  1  0.85955900  0.16920700  0.25539300  1
  C  1204  1  0.85719500  0.15126600  0.24914700  1
  C  1205  1  0.85826200  0.13717700  0.26198500  1
  C  1206  1  0.86058200  0.14100900  0.28036500  1
  C  1208  1  0.85823000  0.14645400  0.23045100  1
  C  1209  1  0.84951500  0.15734400  0.21659300  1
  C  1210  1  0.85407300  0.15358500  0.19855500  1
  C  1211  1  0.86685100  0.13840200  0.19365500  1
  C  1212  1  0.87360600  0.12652200  0.20730900  1
  C  1213  1  0.86873100  0.13005200  0.22544700  1
  C  1218  1  0.87538700  0.11688400  0.23940500  1
  C  1219  1  0.85940500  0.11827100  0.25574400  1
  C  1231  1  0.36187000  0.33738400  0.69228400  1
  C  1232  1  0.36134500  0.32352100  0.70504800  1
  C  1233  1  0.35947300  0.32692800  0.72360500  1
  C  1234  1  0.35712400  0.34487500  0.72983600  1
  C  1235  1  0.35820300  0.35896200  0.71699900  1
  C  1236  1  0.36052600  0.35511900  0.69862100  1
  C  1238  1  0.35812400  0.34969200  0.74853200  1
  C  1239  1  0.34936300  0.33881600  0.76238400  1
  C  1240  1  0.35387200  0.34258300  0.78042900  1
  C  1241  1  0.36669900  0.35773900  0.78533400  1
  C  1242  1  0.37349900  0.36960900  0.77168600  1
  C  1243  1  0.36863300  0.36608800  0.75354500  1
  C  1248  1  0.37532600  0.37924900  0.73959000  1
  C  1249  1  0.35936600  0.37786900  0.72323600  1
  C  1261  1  0.11102100  0.95164700  0.90114300  1
  C  1262  1  0.11033500  0.96459800  0.91482800  1
  C  1263  1  0.10865000  0.98311500  0.91114000  1
  C  1264  1  0.10661100  0.98909800  0.89308500  1
  C  1265  1  0.10778000  0.97606100  0.87919300  1
  C  1266  1  0.10999200  0.95774200  0.88331100  1
  C  1268  1  0.10775000  0.00771900  0.88801600  1
  C  1269  1  0.09891100  0.02174200  0.89862600  1
  C  1270  1  0.10353300  0.03971700  0.89462700  1
  C  1271  1  0.11653100  0.04437300  0.87948100  1
  C  1272  1  0.12340000  0.03053900  0.86785500  1
  C  1273  1  0.11845800  0.01246400  0.87162200  1
  C  1278  1  0.12528100  0.99830400  0.85872600  1
  C  1279  1  0.10922800  0.98202000  0.86020800  1
  C  1291  1  0.61101600  0.54461900  0.07796600  1
  C  1292  1  0.61032000  0.53167000  0.06428000  1
  C  1293  1  0.60859300  0.51315600  0.06796400  1
  C  1294  1  0.60648800  0.50716500  0.08601300  1
  C  1295  1  0.60770500  0.52020200  0.09990700  1
  C  1296  1  0.60993500  0.53852300  0.09579600  1
  C  1298  1  0.60763600  0.48854600  0.09108900  1
  C  1299  1  0.59879400  0.47452400  0.08048000  1
  C  1300  1  0.60341700  0.45654900  0.08447600  1
  C  1301  1  0.61641700  0.45189200  0.09961900  1
  C  1302  1  0.62328800  0.46572300  0.11124700  1
  C  1303  1  0.61835300  0.48379900  0.10748000  1
  C  1308  1  0.62517600  0.49795500  0.12037700  1
  C  1309  1  0.60912500  0.51424000  0.11889300  1
  C  1321  1  0.62874300  0.34357500  0.28785400  1
  C  1322  1  0.63077900  0.32843500  0.27673900  1
  C  1323  1  0.63526000  0.32983000  0.25820600  1
  C  1324  1  0.63887600  0.34699600  0.25036200  1
  C  1325  1  0.63644400  0.36235700  0.26152500  1
  C  1326  1  0.63142100  0.36052000  0.27987300  1
  C  1328  1  0.64021200  0.34981900  0.23126500  1
  C  1329  1  0.64993800  0.33738400  0.21923500  1
  C  1330  1  0.64695800  0.33904400  0.20066700  1
  C  1331  1  0.63479600  0.35358400  0.19342300  1
  C  1332  1  0.62740300  0.36710000  0.20523600  1
  C  1333  1  0.63067500  0.36566800  0.22386400  1
  C  1338  1  0.62293500  0.38038800  0.23577200  1
  C  1339  1  0.63678300  0.38051100  0.25333000  1
  C  1351  1  0.12882300  0.15260800  0.69129400  1
  C  1352  1  0.13085900  0.16776100  0.70239700  1
  C  1353  1  0.13533100  0.16637500  0.72093000  1
  C  1354  1  0.13895800  0.14921500  0.72877700  1
  C  1355  1  0.13656100  0.13384200  0.71762700  1
  C  1356  1  0.13154400  0.13566800  0.69927600  1
  C  1358  1  0.14031000  0.14640400  0.74787600  1
  C  1359  1  0.15003600  0.15885100  0.75989500  1
  C  1360  1  0.14708200  0.15719700  0.77846600  1
  C  1361  1  0.13488300  0.14267800  0.78571800  1
  C  1362  1  0.12749000  0.12915200  0.77391700  1
  C  1363  1  0.13078500  0.13055500  0.75529000  1
  C  1368  1  0.12306800  0.11581900  0.74339400  1
  C  1369  1  0.13691500  0.11569400  0.72583500  1
  C  1381  1  0.38033400  0.54571600  0.89524700  1
  C  1382  1  0.38257100  0.53436100  0.91019400  1
  C  1383  1  0.38678800  0.51582000  0.90845000  1
  C  1384  1  0.38999600  0.50823700  0.89111800  1
  C  1385  1  0.38742400  0.51965000  0.87596200  1
  C  1386  1  0.38260100  0.53798800  0.87814600  1
  C  1388  1  0.39116600  0.48918800  0.88799600  1
  C  1389  1  0.40106900  0.47694500  0.90012800  1
  C  1390  1  0.39795500  0.45841800  0.89822500  1
  C  1391  1  0.38544200  0.45144000  0.88373700  1
  C  1392  1  0.37789700  0.46347700  0.87047300  1
  C  1393  1  0.38130900  0.48206600  0.87214200  1
  C  1398  1  0.37335100  0.49423200  0.85770900  1
  C  1399  1  0.38731600  0.51173200  0.85768200  1
  C  1411  1  0.88011100  0.95044700  0.08381200  1
  C  1412  1  0.88233400  0.96180000  0.06886400  1
  C  1413  1  0.88662800  0.98033000  0.07059900  1
  C  1414  1  0.88992500  0.98791200  0.08792300  1
  C  1415  1  0.88730000  0.97650600  0.10308300  1
  C  1416  1  0.88244200  0.95817100  0.10090800  1
  C  1418  1  0.89113600  0.00695800  0.09105300  1
  C  1419  1  0.90105600  0.01918500  0.07891200  1
  C  1420  1  0.89799200  0.03771700  0.08081600  1
  C  1421  1  0.88551800  0.04471500  0.09531500  1
  C  1422  1  0.87795300  0.03269400  0.10858500  1
  C  1423  1  0.88130300  0.01409700  0.10690800  1
  C  1428  1  0.87332400  0.00194700  0.12134600  1
  C  1429  1  0.88724600  0.98442500  0.12136300  1
  C  1441  1  0.13496100  0.83683900  0.69343800  1
  C  1442  1  0.13534300  0.82312600  0.70636800  1
  C  1443  1  0.13673400  0.82674300  0.72491400  1
  C  1444  1  0.13878100  0.84476900  0.73098900  1
  C  1445  1  0.13792200  0.85869900  0.71797200  1
  C  1446  1  0.13599900  0.85464600  0.69961500  1
  C  1448  1  0.13727500  0.84980300  0.74960900  1
  C  1449  1  0.14571600  0.83910900  0.76372200  1
  C  1450  1  0.14083200  0.84312800  0.78164900  1
  C  1451  1  0.12802700  0.85840700  0.78619900  1
  C  1452  1  0.12147500  0.87006400  0.77229500  1
  C  1453  1  0.12663300  0.86625400  0.75426400  1
  C  1458  1  0.12020900  0.87921700  0.74004900  1
  C  1459  1  0.13656700  0.87767800  0.72396500  1
  C  1471  1  0.63499000  0.65949900  0.28569400  1
  C  1472  1  0.63541200  0.67320600  0.27275700  1
  C  1473  1  0.63681800  0.66957000  0.25421700  1
  C  1474  1  0.63885300  0.65153900  0.24816400  1
  C  1475  1  0.63797500  0.63761300  0.26118300  1
  C  1476  1  0.63604000  0.64168400  0.27953600  1
  C  1478  1  0.63739100  0.64649300  0.22954500  1
  C  1479  1  0.64588300  0.65716900  0.21543600  1
  C  1480  1  0.64105300  0.65313600  0.19750400  1
  C  1481  1  0.62820000  0.63788400  0.19294900  1
  C  1482  1  0.62159500  0.62624100  0.20685000  1
  C  1483  1  0.62673700  0.63004800  0.22488500  1
  C  1488  1  0.62027100  0.61709800  0.23909900  1
  C  1489  1  0.63660200  0.61863200  0.25520200  1
  C  1501  1  0.36600300  0.65376300  0.69212300  1
  C  1502  1  0.36406800  0.66873100  0.70349100  1
  C  1503  1  0.36014600  0.66703300  0.72207800  1
  C  1504  1  0.35692500  0.64972900  0.72972300  1
  C  1505  1  0.35916400  0.63455000  0.71829600  1
  C  1506  1  0.36370000  0.63668600  0.69990100  1
  C  1508  1  0.35597300  0.64663100  0.74879200  1
  C  1509  1  0.34634800  0.65883400  0.76110700  1
  C  1510  1  0.34950300  0.65684500  0.77962200  1
  C  1511  1  0.36175400  0.64219200  0.78655300  1
  C  1512  1  0.36908100  0.62891700  0.77444000  1
  C  1513  1  0.36566200  0.63068700  0.75585400  1
  C  1518  1  0.37336400  0.61622000  0.74362400  1
  C  1519  1  0.35919200  0.61627400  0.72622700  1
  C  1531  1  0.86589700  0.84244400  0.28689600  1
  C  1532  1  0.86395700  0.82746100  0.27555000  1
  C  1533  1  0.86001500  0.82913200  0.25696400  1
  C  1534  1  0.85674100  0.84642000  0.24929500  1
  C  1535  1  0.85902400  0.86161700  0.26070100  1
  C  1536  1  0.86355800  0.85950700  0.27910000  1
  C  1538  1  0.85581600  0.84949900  0.23022200  1
  C  1539  1  0.84620300  0.83727900  0.21792000  1
  C  1540  1  0.84939500  0.83922800  0.19940500  1
  C  1541  1  0.86166600  0.85386300  0.19246100  1
  C  1542  1  0.86897800  0.86716300  0.20455600  1
  C  1543  1  0.86553500  0.86542600  0.22314200  1
  C  1548  1  0.87322400  0.87991100  0.23535300  1
  C  1549  1  0.85904200  0.87988100  0.25274200  1
  C  1561  1  0.61213900  0.45152800  0.40029700  1
  C  1562  1  0.61192100  0.46436100  0.41410400  1
  C  1563  1  0.61032500  0.48292400  0.41063700  1
  C  1564  1  0.60794800  0.48912300  0.39268000  1
  C  1565  1  0.60866400  0.47620600  0.37864800  1
  C  1566  1  0.61073400  0.45781800  0.38254800  1
  C  1568  1  0.60927000  0.50779200  0.38777400  1
  C  1569  1  0.60091600  0.52180200  0.39864900  1
  C  1570  1  0.60566000  0.53977700  0.39472600  1
  C  1571  1  0.61825000  0.54448100  0.37938400  1
  C  1572  1  0.62470000  0.53068400  0.36756300  1
  C  1573  1  0.61965300  0.51260800  0.37126700  1
  C  1578  1  0.62594200  0.49851000  0.35813200  1
  C  1579  1  0.60970400  0.48234800  0.35970500  1
  C  1591  1  0.11214800  0.04479600  0.57874800  1
  C  1592  1  0.11193200  0.03196000  0.56494300  1
  C  1593  1  0.11033500  0.01339800  0.56842000  1
  C  1594  1  0.10794400  0.00721300  0.58637900  1
  C  1595  1  0.10862700  0.02013100  0.60040900  1
  C  1596  1  0.11069600  0.03851700  0.59650100  1
  C  1598  1  0.10923600  0.98854300  0.59129700  1
  C  1599  1  0.10087900  0.97453100  0.58042700  1
  C  1600  1  0.10556600  0.95655200  0.58437800  1
  C  1601  1  0.11815500  0.95185300  0.59972300  1
  C  1602  1  0.12461400  0.96565500  0.61153400  1
  C  1603  1  0.11958700  0.98373100  0.60781900  1
  C  1608  1  0.12587200  0.99783300  0.62094900  1
  C  1609  1  0.10964200  0.01399800  0.61935600  1
  C  1621  1  0.87883100  0.04587300  0.39435700  1
  C  1622  1  0.88058400  0.03464600  0.40944300  1
  C  1623  1  0.88477900  0.01607600  0.40795600  1
  C  1624  1  0.88841700  0.00830200  0.39076000  1
  C  1625  1  0.88638800  0.01959700  0.37546100  1
  C  1626  1  0.88161500  0.03798200  0.37738100  1
  C  1628  1  0.88957600  0.98920600  0.38783100  1
  C  1629  1  0.89901200  0.97701500  0.40025200  1
  C  1630  1  0.89600100  0.95846800  0.39836800  1
  C  1631  1  0.88406500  0.95138600  0.38362600  1
  C  1632  1  0.87693800  0.96337100  0.37016900  1
  C  1633  1  0.88024600  0.98198000  0.37182300  1
  C  1638  1  0.87278700  0.99405700  0.35715000  1
  C  1639  1  0.88683200  0.01151800  0.35725600  1
  C  1651  1  0.37865000  0.45027000  0.58475100  1
  C  1652  1  0.38038800  0.46150800  0.56967500  1
  C  1653  1  0.38464700  0.48006700  0.57116900  1
  C  1654  1  0.38837200  0.48782600  0.58836100  1
  C  1655  1  0.38628300  0.47652400  0.60365600  1
  C  1656  1  0.38148700  0.45814400  0.60173000  1
  C  1658  1  0.38956900  0.50691600  0.59131300  1
  C  1659  1  0.39903300  0.51909800  0.57889900  1
  C  1660  1  0.39607900  0.53764700  0.58079500  1
  C  1661  1  0.38417300  0.54474200  0.59554500  1
  C  1662  1  0.37701600  0.53276300  0.60899900  1
  C  1663  1  0.38025800  0.51414800  0.60732500  1
  C  1668  1  0.37277000  0.50207200  0.62199000  1
  C  1669  1  0.38676900  0.48459200  0.62186700  1
  C  1681  1  0.11242400  0.14821700  0.39581800  1
  C  1682  1  0.12929000  0.15413400  0.38413500  1
  C  1683  1  0.12027500  0.15541600  0.36708700  1
  C  1684  1  0.09762790  0.15018500  0.36769500  1
  C  1685  1  0.08470690  0.14974400  0.35187200  1
  C  1686  1  0.09462390  0.15459500  0.33528300  1
  C  1687  1  0.11776900  0.15965200  0.33511700  1
  C  1688  1  0.13062200  0.16020800  0.35090600  1
  C  1689  1  0.15129300  0.15753400  0.39021500  1
  C  1690  1  0.15621600  0.15469400  0.40836800  1
  C  1691  1  0.13939000  0.14855300  0.42042800  1
  C  1692  1  0.11719900  0.14563300  0.41409300  1
  C  1693  1  0.07177790  0.15547600  0.39338600  1
  C  1694  1  0.05404190  0.14413400  0.39823700  1
  C  1695  1  0.06041190  0.12662800  0.39480800  1
  C  1696  1  0.08231590  0.12667700  0.38784000  1
  C  1697  1  0.04884190  0.11054500  0.39790600  1
  C  1698  1  0.05998590  0.09431100  0.39442900  1
  C  1699  1  0.08261990  0.09394200  0.38812100  1
  C  1700  1  0.09349990  0.11041400  0.38437200  1
  C  1701  1  0.06997090  0.17405500  0.39607400  1
  C  1702  1  0.05017690  0.18131500  0.40386700  1
  C  1703  1  0.03229790  0.16947900  0.40848000  1
  C  1704  1  0.03415490  0.15093000  0.40583000  1
  C  1717  1  0.09100290  0.14516400  0.38613000  1
  C  1718  1  0.09411390  0.07739300  0.38563800  1
  C  1719  1  0.04741990  0.20016500  0.40516200  1
  C  1720  1  0.08232790  0.15289700  0.31897400  1
  C  1721  1  0.14483500  0.14606900  0.43867300  1
  C  1726  1  0.61244600  0.34795300  0.58320300  1
  C  1727  1  0.62932400  0.34207100  0.59489200  1
  C  1728  1  0.62030700  0.34079400  0.61194200  1
  C  1729  1  0.59763600  0.34595700  0.61131900  1
  C  1730  1  0.58469800  0.34636700  0.62713500  1
  C  1731  1  0.59461900  0.34153500  0.64372700  1
  C  1732  1  0.61777400  0.33650900  0.64390500  1
  C  1733  1  0.63064800  0.33600000  0.62812500  1
  C  1734  1  0.65134600  0.33873300  0.58882700  1
  C  1735  1  0.65627500  0.34158300  0.57067700  1
  C  1736  1  0.63943500  0.34767600  0.55860400  1
  C  1737  1  0.61723200  0.35056000  0.56493200  1
  C  1738  1  0.57181500  0.34063100  0.58561300  1
  C  1739  1  0.55405400  0.35194800  0.58076400  1
  C  1740  1  0.56036800  0.36946200  0.58422700  1
  C  1741  1  0.58227600  0.36944300  0.59118600  1
  C  1742  1  0.54875400  0.38553000  0.58115300  1
  C  1743  1  0.55986000  0.40177900  0.58463900  1
  C  1744  1  0.58249300  0.40217900  0.59094500  1
  C  1745  1  0.59341000  0.38572000  0.59468800  1
  C  1746  1  0.57006600  0.32205200  0.58289200  1
  C  1747  1  0.55030200  0.31477100  0.57507100  1
  C  1748  1  0.53237900  0.32657700  0.57049300  1
  C  1749  1  0.53417200  0.34512400  0.57318700  1
  C  1762  1  0.59100900  0.35096900  0.59288100  1
  C  1763  1  0.59395400  0.41874200  0.59344000  1
  C  1764  1  0.54764500  0.29592400  0.57365800  1
  C  1765  1  0.58229900  0.34320900  0.66002800  1
  C  1766  1  0.64487200  0.35014000  0.54035500  1
  C  1771  1  0.36308900  0.84301900  0.88956900  1
  C  1772  1  0.37946700  0.85459700  0.89646600  1
  C  1773  1  0.37012800  0.87151100  0.89808800  1
  C  1774  1  0.34776600  0.87089000  0.89214800  1
  C  1775  1  0.33461900  0.88658800  0.89183400  1
  C  1776  1  0.34404000  0.90311500  0.89745000  1
  C  1777  1  0.36691900  0.90330900  0.90323400  1
  C  1778  1  0.37997100  0.88761800  0.90371800  1
  C  1779  1  0.40135500  0.84855000  0.90036000  1
  C  1780  1  0.40663600  0.83052700  0.89709600  1
  C  1781  1  0.39026600  0.81857100  0.89005000  1
  C  1782  1  0.36820000  0.82487300  0.88654800  1
  C  1783  1  0.32205200  0.84474900  0.89541800  1
  C  1784  1  0.30516800  0.84004700  0.88323500  1
  C  1785  1  0.31246200  0.84434200  0.86614400  1
  C  1786  1  0.33413600  0.85165900  0.86731800  1
  C  1787  1  0.30202100  0.84166200  0.84951000  1
  C  1788  1  0.31392100  0.84622000  0.83388700  1
  C  1789  1  0.33607800  0.85348100  0.83468400  1
  C  1790  1  0.34610000  0.85618800  0.85167900  1
  C  1791  1  0.31910300  0.84152700  0.91381200  1
  C  1792  1  0.29895100  0.83344300  0.92007700  1
  C  1793  1  0.28198100  0.82892100  0.90739700  1
  C  1794  1  0.28501600  0.83205100  0.88901400  1
  C  1807  1  0.34171400  0.85263500  0.88615300  1
  C  1808  1  0.34873700  0.85624100  0.81876100  1
  C  1809  1  0.29490400  0.83192000  0.93876400  1
  C  1810  1  0.33158800  0.91935100  0.89565700  1
  C  1811  1  0.39592400  0.80041800  0.88729400  1
  C  1816  1  0.86324100  0.65322100  0.08957400  1
  C  1817  1  0.87962100  0.64162400  0.08271000  1
  C  1818  1  0.87027300  0.62471100  0.08111000  1
  C  1819  1  0.84789800  0.62535500  0.08701700  1
  C  1820  1  0.83472500  0.60966900  0.08731300  1
  C  1821  1  0.84412300  0.59313700  0.08168700  1
  C  1822  1  0.86699800  0.59292700  0.07589000  1
  C  1823  1  0.88007900  0.60860600  0.07543400  1
  C  1824  1  0.90150900  0.64766300  0.07879800  1
  C  1825  1  0.90678600  0.66569600  0.08200900  1
  C  1826  1  0.89041300  0.67767300  0.08901600  1
  C  1827  1  0.86835200  0.67137500  0.09254300  1
  C  1828  1  0.82220000  0.65150600  0.08373500  1
  C  1829  1  0.80534500  0.65625800  0.09592400  1
  C  1830  1  0.81262900  0.65194200  0.11301400  1
  C  1831  1  0.83428800  0.64459900  0.11183500  1
  C  1832  1  0.80222500  0.65469500  0.12965200  1
  C  1833  1  0.81413500  0.65015000  0.14527500  1
  C  1834  1  0.83627000  0.64285100  0.14447000  1
  C  1835  1  0.84626800  0.64009400  0.12747400  1
  C  1836  1  0.81921500  0.65467100  0.06533500  1
  C  1837  1  0.79903900  0.66271700  0.05907000  1
  C  1838  1  0.78211000  0.66731100  0.07175900  1
  C  1839  1  0.78518700  0.66424200  0.09014700  1
  C  1852  1  0.84186000  0.64361600  0.09300000  1
  C  1853  1  0.84892400  0.64007700  0.16039100  1
  C  1854  1  0.79490300  0.66411500  0.04038400  1
  C  1855  1  0.83164600  0.57691100  0.08346200  1
  C  1856  1  0.89605500  0.69584600  0.09166800  1
  C  1861  1  0.82185400  0.34468800  0.39738100  1
  C  1862  1  0.80406000  0.33982400  0.38610000  1
  C  1863  1  0.81030400  0.34331500  0.36857700  1
  C  1864  1  0.83218800  0.35032200  0.36856400  1
  C  1865  1  0.84329500  0.35380200  0.35227700  1
  C  1866  1  0.83236700  0.35001300  0.33583800  1
  C  1867  1  0.80975700  0.34365700  0.33625900  1
  C  1868  1  0.79868300  0.34017400  0.35252400  1
  C  1869  1  0.78430200  0.33206600  0.39294800  1
  C  1870  1  0.78266400  0.32921300  0.41147900  1
  C  1871  1  0.80063000  0.33379600  0.42324500  1
  C  1872  1  0.82026500  0.34179700  0.41594200  1
  C  1873  1  0.86245300  0.34235600  0.38996400  1
  C  1874  1  0.87933600  0.35406400  0.39579700  1
  C  1875  1  0.87029500  0.37110500  0.39710100  1
  C  1876  1  0.84759200  0.37046300  0.39202400  1
  C  1877  1  0.88066300  0.38730200  0.40180700  1
  C  1878  1  0.86779100  0.40308100  0.40128800  1
  C  1879  1  0.84461700  0.40289900  0.39631000  1
  C  1880  1  0.83466800  0.38628800  0.39157300  1
  C  1881  1  0.86725600  0.32408800  0.38735800  1
  C  1882  1  0.88947600  0.31777500  0.39020600  1
  C  1883  1  0.90631700  0.32986700  0.39625700  1
  C  1884  1  0.90137700  0.34801800  0.39909400  1
  C  1897  1  0.84098400  0.35201600  0.38701400  1
  C  1898  1  0.83234000  0.41921800  0.39457600  1
  C  1899  1  0.89492400  0.29952200  0.38776400  1
  C  1900  1  0.84383200  0.35246500  0.31928000  1
  C  1901  1  0.79817100  0.33218500  0.44209700  1
  C  1906  1  0.32195300  0.15162700  0.58178000  1
  C  1907  1  0.30415800  0.15647900  0.59306300  1
  C  1908  1  0.31037200  0.15292900  0.61058000  1
  C  1909  1  0.33228300  0.14597600  0.61059200  1
  C  1910  1  0.34335400  0.14240500  0.62687700  1
  C  1911  1  0.33241400  0.14617200  0.64331500  1
  C  1912  1  0.30980500  0.15253200  0.64289700  1
  C  1913  1  0.29874500  0.15604700  0.62663500  1
  C  1914  1  0.28436200  0.16417300  0.58621500  1
  C  1915  1  0.28269500  0.16698800  0.56768000  1
  C  1916  1  0.30066200  0.16242100  0.55591000  1
  C  1917  1  0.32032900  0.15446900  0.56321300  1
  C  1918  1  0.36255400  0.15394400  0.58920000  1
  C  1919  1  0.37943000  0.14223700  0.58335400  1
  C  1920  1  0.37038300  0.12519800  0.58204200  1
  C  1921  1  0.34768600  0.12584000  0.58713100  1
  C  1922  1  0.38073500  0.10900300  0.57730200  1
  C  1923  1  0.36785300  0.09322800  0.57780800  1
  C  1924  1  0.34467500  0.09341600  0.58276900  1
  C  1925  1  0.33474000  0.11002400  0.58753600  1
  C  1926  1  0.36736200  0.17221200  0.59180900  1
  C  1927  1  0.38958900  0.17852000  0.58898700  1
  C  1928  1  0.40642800  0.16642500  0.58293900  1
  C  1929  1  0.40148000  0.14827900  0.58008100  1
  C  1942  1  0.34108100  0.14428600  0.59214200  1
  C  1943  1  0.33236600  0.07710500  0.58446300  1
  C  1944  1  0.39501500  0.19678200  0.59142100  1
  C  1945  1  0.34385700  0.14369300  0.65988000  1
  C  1946  1  0.29815400  0.16395700  0.53706000  1
  C  1951  1  0.57128100  0.65512800  0.89336800  1
  C  1952  1  0.55409900  0.64366400  0.89909000  1
  C  1953  1  0.56079800  0.62617700  0.89601300  1
  C  1954  1  0.58241400  0.62637600  0.88850300  1
  C  1955  1  0.59382200  0.61021000  0.88508800  1
  C  1956  1  0.58347600  0.59367500  0.88945000  1
  C  1957  1  0.56111600  0.59386700  0.89636200  1
  C  1958  1  0.54975800  0.61001300  0.89980200  1
  C  1959  1  0.53445200  0.65036100  0.90714600  1
  C  1960  1  0.53232300  0.66893800  0.90945800  1
  C  1961  1  0.54969800  0.68090300  0.90403800  1
  C  1962  1  0.56919900  0.67373300  0.89571600  1
  C  1963  1  0.61220100  0.64885700  0.89475200  1
  C  1964  1  0.62814400  0.65496200  0.88238100  1
  C  1965  1  0.61831400  0.65524600  0.86558400  1
  C  1966  1  0.59596800  0.64936000  0.86704500  1
  C  1967  1  0.62773000  0.65979100  0.84897500  1
  C  1968  1  0.61440300  0.65789100  0.83355800  1
  C  1969  1  0.59185700  0.65151100  0.83458300  1
  C  1970  1  0.58247600  0.64766900  0.85159000  1
  C  1971  1  0.61802100  0.64705000  0.91292900  1
  C  1972  1  0.64033400  0.65092200  0.91845500  1
  C  1973  1  0.65618400  0.65725200  0.90569000  1
  C  1974  1  0.65021500  0.65931700  0.88763400  1
  C  1987  1  0.59044500  0.64493000  0.88586200  1
  C  1988  1  0.57927200  0.64900700  0.81862500  1
  C  1989  1  0.64686600  0.64911400  0.93655200  1
  C  1990  1  0.59516200  0.57724200  0.88680800  1
  C  1991  1  0.54673300  0.69974400  0.90515000  1
  C  1996  1  0.07129290  0.84100400  0.08565500  1
  C  1997  1  0.05405490  0.85243800  0.07997800  1
  C  1998  1  0.06068190  0.86993600  0.08310000  1
  C  1999  1  0.08231090  0.86977300  0.09058700  1
  C  2000  1  0.09367990  0.88595700  0.09399100  1
  C  2001  1  0.08329390  0.90247500  0.08962600  1
  C  2002  1  0.06093190  0.90224600  0.08272200  1
  C  2003  1  0.04960990  0.88608200  0.07929300  1
  C  2004  1  0.03442690  0.84571000  0.07192000  1
  C  2005  1  0.03237190  0.82713500  0.06956400  1
  C  2006  1  0.04981790  0.81520100  0.07490900  1
  C  2007  1  0.06929090  0.82240200  0.08324700  1
  C  2008  1  0.11219300  0.84737900  0.08427900  1
  C  2009  1  0.12816100  0.84129000  0.09663900  1
  C  2010  1  0.11833000  0.84094200  0.11343500  1
  C  2011  1  0.09596590  0.84678800  0.11198600  1
  C  2012  1  0.12775600  0.83637900  0.13003600  1
  C  2013  1  0.11441500  0.83821100  0.14545400  1
  C  2014  1  0.09184490  0.84453900  0.14443800  1
  C  2015  1  0.08245090  0.84838600  0.12743600  1
  C  2016  1  0.11800400  0.84923300  0.06610500  1
  C  2017  1  0.14032000  0.84539300  0.06056400  1
  C  2018  1  0.15619700  0.83908700  0.07332000  1
  C  2019  1  0.15024800  0.83699700  0.09137600  1
  C  2032  1  0.09041990  0.85123300  0.09317600  1
  C  2033  1  0.07924990  0.84700300  0.16039800  1
  C  2034  1  0.14682200  0.84718500  0.04245800  1
  C  2035  1  0.09494490  0.91892700  0.09225900  1
  C  2036  1  0.04695090  0.79635000  0.07371200  1
  C  2041  1  0.32207000  0.84827700  0.58471200  1
  C  2042  1  0.30571100  0.84142400  0.59633300  1
  C  2043  1  0.31503500  0.83994800  0.61326200  1
  C  2044  1  0.33737100  0.84595200  0.61262900  1
  C  2045  1  0.35049800  0.84634800  0.62834200  1
  C  2046  1  0.34109600  0.84072000  0.64487600  1
  C  2047  1  0.31823100  0.83490300  0.64507300  1
  C  2048  1  0.30519700  0.83434000  0.62937700  1
  C  2049  1  0.28386000  0.83737500  0.59030200  1
  C  2050  1  0.27857900  0.84046400  0.57225100  1
  C  2051  1  0.29491500  0.84747500  0.56024700  1
  C  2052  1  0.31695500  0.85111600  0.56653400  1
  C  2053  1  0.36312800  0.84253300  0.58653400  1
  C  2054  1  0.37995900  0.85471800  0.58172000  1
  C  2055  1  0.37260200  0.87182900  0.58586500  1
  C  2056  1  0.35093400  0.87067900  0.59320100  1
  C  2057  1  0.38301700  0.88845200  0.58304500  1
  C  2058  1  0.37108600  0.90409800  0.58746200  1
  C  2059  1  0.34892100  0.90333300  0.59470500  1
  C  2060  1  0.33891800  0.88635000  0.59754900  1
  C  2061  1  0.36617900  0.82411500  0.58349000  1
  C  2062  1  0.38637400  0.81783600  0.57548000  1
  C  2063  1  0.40327600  0.83052700  0.57083200  1
  C  2064  1  0.40013900  0.84892800  0.57377500  1
  C  2077  1  0.34342000  0.85183000  0.59432700  1
  C  2078  1  0.33629400  0.91928900  0.59736800  1
  C  2079  1  0.39056800  0.79915000  0.57414600  1
  C  2080  1  0.35351900  0.84250100  0.66113000  1
  C  2081  1  0.28920200  0.85007300  0.54208000  1
  C  2086  1  0.82201700  0.64802200  0.39439300  1
  C  2087  1  0.80564400  0.65484200  0.38276400  1
  C  2088  1  0.81496900  0.65631400  0.36583400  1
  C  2089  1  0.83733200  0.65037600  0.36648400  1
  C  2090  1  0.85047700  0.65001200  0.35078100  1
  C  2091  1  0.84107200  0.65561900  0.33424200  1
  C  2092  1  0.81819500  0.66140900  0.33403200  1
  C  2093  1  0.80513700  0.66192300  0.34971600  1
  C  2094  1  0.78377200  0.65883700  0.38878300  1
  C  2095  1  0.77849100  0.65574400  0.40683400  1
  C  2096  1  0.79484500  0.64878100  0.41884900  1
  C  2097  1  0.81689800  0.64517100  0.41256700  1
  C  2098  1  0.86306600  0.65382700  0.39259200  1
  C  2099  1  0.87992900  0.64166500  0.39739500  1
  C  2100  1  0.87262100  0.62454600  0.39322100  1
  C  2101  1  0.85094700  0.62566900  0.38589500  1
  C  2102  1  0.88307700  0.60793500  0.39601800  1
  C  2103  1  0.87117500  0.59227400  0.39159700  1
  C  2104  1  0.84899700  0.59301400  0.38437600  1
  C  2105  1  0.83896300  0.60998500  0.38153900  1
  C  2106  1  0.86605000  0.67224300  0.39568700  1
  C  2107  1  0.88621100  0.67854500  0.40373500  1
  C  2108  1  0.90316000  0.66588000  0.40834100  1
  C  2109  1  0.90009700  0.64748100  0.40533500  1
  C  2122  1  0.84338300  0.64450700  0.38478800  1
  C  2123  1  0.83638800  0.57704200  0.38174600  1
  C  2124  1  0.89029800  0.69723600  0.40518600  1
  C  2125  1  0.85352300  0.65386300  0.31800000  1
  C  2126  1  0.78914900  0.64620700  0.43702300  1
  C  2131  1  0.07235990  0.15225400  0.08910900  1
  C  2132  1  0.05718590  0.13985600  0.08192000  1
  C  2133  1  0.06745390  0.12322800  0.08154700  1
  C  2134  1  0.08930090  0.12483000  0.08849000  1
  C  2135  1  0.10307400  0.10955200  0.09029000  1
  C  2136  1  0.09438590  0.09255300  0.08555200  1
  C  2137  1  0.07234290  0.09135700  0.07818700  1
  C  2138  1  0.05878790  0.10662600  0.07612100  1
  C  2139  1  0.03534890  0.14493500  0.07669300  1
  C  2140  1  0.02883990  0.16285600  0.07891200  1
  C  2141  1  0.04394090  0.17565300  0.08623800  1
  C  2142  1  0.06601890  0.17030400  0.09107500  1
  C  2143  1  0.11370900  0.15167000  0.08475000  1
  C  2144  1  0.12973800  0.15744800  0.09718500  1
  C  2145  1  0.12184700  0.15363800  0.11421900  1
  C  2146  1  0.10057500  0.14564400  0.11276200  1
  C  2147  1  0.13156600  0.15707100  0.13098700  1
  C  2148  1  0.11941400  0.15244500  0.14646000  1
  C  2149  1  0.09769990  0.14443800  0.14536400  1
  C  2150  1  0.08829990  0.14112700  0.12825700  1
  C  2151  1  0.11741300  0.15417800  0.06633000  1
  C  2152  1  0.13747000  0.16258800  0.06028400  1
  C  2153  1  0.15358700  0.16816200  0.07323900  1
  C  2154  1  0.14979000  0.16576300  0.09164300  1
  C  2167  1  0.09400390  0.14355900  0.09377800  1
  C  2168  1  0.08497890  0.14124500  0.16114800  1
  C  2169  1  0.14231200  0.16347300  0.04166200  1
  C  2170  1  0.10703300  0.07671200  0.08838000  1
  C  2171  1  0.03696790  0.19363500  0.08804800  1
  C  2176  1  0.57228600  0.34388400  0.88989600  1
  C  2177  1  0.55709800  0.35627700  0.89707600  1
  C  2178  1  0.56733700  0.37291700  0.89741400  1
  C  2179  1  0.58918900  0.37132300  0.89048000  1
  C  2180  1  0.60295400  0.38660600  0.88868400  1
  C  2181  1  0.59427300  0.40359600  0.89346100  1
  C  2182  1  0.57223300  0.40478100  0.90083300  1
  C  2183  1  0.55868300  0.38950600  0.90288800  1
  C  2184  1  0.53527300  0.35118300  0.90231800  1
  C  2185  1  0.52878900  0.33325200  0.90012300  1
  C  2186  1  0.54390700  0.32046100  0.89280800  1
  C  2187  1  0.56597300  0.32582600  0.88795600  1
  C  2188  1  0.61363600  0.34450600  0.89422800  1
  C  2189  1  0.62964100  0.33869900  0.88178700  1
  C  2190  1  0.62173800  0.34250600  0.86475500  1
  C  2191  1  0.60046900  0.35050100  0.86621900  1
  C  2192  1  0.63142600  0.33902800  0.84798300  1
  C  2193  1  0.61925300  0.34363600  0.83251400  1
  C  2194  1  0.59755000  0.35165800  0.83361900  1
  C  2195  1  0.58816800  0.35499200  0.85072800  1
  C  2196  1  0.61738900  0.34205900  0.91265000  1
  C  2197  1  0.63748400  0.33370400  0.91869200  1
  C  2198  1  0.65356300  0.32807900  0.90572900  1
  C  2199  1  0.64971400  0.33041400  0.88732200  1
  C  2212  1  0.59391300  0.35259400  0.88520500  1
  C  2213  1  0.58482700  0.35485900  0.81783900  1
  C  2214  1  0.64242200  0.33293300  0.93730400  1
  C  2215  1  0.60692300  0.41944400  0.89066900  1
  C  2216  1  0.53695900  0.30247100  0.89102100  1
  C  2221  1  0.61389600  0.65152100  0.58263200  1
  C  2222  1  0.63105600  0.65724200  0.59411700  1
  C  2223  1  0.62431000  0.65419700  0.61159800  1
  C  2224  1  0.60268600  0.64669900  0.61139200  1
  C  2225  1  0.59123700  0.64338100  0.62756800  1
  C  2226  1  0.60156100  0.64779600  0.64410300  1
  C  2227  1  0.62394300  0.65466100  0.64390200  1
  C  2228  1  0.63533400  0.65802700  0.62775900  1
  C  2229  1  0.65073000  0.66528000  0.58744800  1
  C  2230  1  0.65291000  0.66758600  0.56887600  1
  C  2231  1  0.63555200  0.66219100  0.55688500  1
  C  2232  1  0.61602300  0.65388200  0.56403000  1
  C  2233  1  0.57295800  0.65297500  0.58884700  1
  C  2234  1  0.55701300  0.64061400  0.58272000  1
  C  2235  1  0.56681200  0.62380700  0.58245500  1
  C  2236  1  0.58914700  0.62523600  0.58838100  1
  C  2237  1  0.55737800  0.60722000  0.57785700  1
  C  2238  1  0.57067800  0.59178500  0.57972500  1
  C  2239  1  0.59321800  0.59277300  0.58611900  1
  C  2240  1  0.60262000  0.60976100  0.59002100  1
  C  2241  1  0.56716000  0.67116500  0.59059500  1
  C  2242  1  0.54488400  0.67671700  0.58661500  1
  C  2243  1  0.52903800  0.66395500  0.58027600  1
  C  2244  1  0.53497400  0.64588600  0.57828500  1
  C  2257  1  0.59468800  0.64405500  0.59282100  1
  C  2258  1  0.60574300  0.57678100  0.58858700  1
  C  2259  1  0.53835700  0.69482700  0.58833400  1
  C  2260  1  0.58987300  0.64524200  0.66055800  1
  C  2261  1  0.63857800  0.66334000  0.53804700  1
  C  2266  1  0.11377600  0.84461000  0.39637200  1
  C  2267  1  0.13094500  0.83890700  0.38488700  1
  C  2268  1  0.12422900  0.84200000  0.36740700  1
  C  2269  1  0.10257800  0.84944800  0.36761300  1
  C  2270  1  0.09116490  0.85283700  0.35143600  1
  C  2271  1  0.10150600  0.84844600  0.33490100  1
  C  2272  1  0.12388900  0.84158300  0.33510100  1
  C  2273  1  0.13526700  0.83819500  0.35124600  1
  C  2274  1  0.15066800  0.83094700  0.39155900  1
  C  2275  1  0.15287600  0.82868600  0.41013400  1
  C  2276  1  0.13551400  0.83406200  0.42212700  1
  C  2277  1  0.11594100  0.84230600  0.41497800  1
  C  2278  1  0.07284290  0.84313600  0.39013600  1
  C  2279  1  0.05688290  0.85548000  0.39627700  1
  C  2280  1  0.06666490  0.87229400  0.39656200  1
  C  2281  1  0.08899990  0.87088500  0.39062900  1
  C  2282  1  0.05722290  0.88886900  0.40119600  1
  C  2283  1  0.07052190  0.90431100  0.39937400  1
  C  2284  1  0.09306890  0.90334100  0.39299300  1
  C  2285  1  0.10246800  0.88636600  0.38902900  1
  C  2286  1  0.06706590  0.82494500  0.38836200  1
  C  2287  1  0.04477990  0.81937900  0.39228900  1
  C  2288  1  0.02890890  0.83212500  0.39862400  1
  C  2289  1  0.03483390  0.85019200  0.40066000  1
  C  2302  1  0.09456790  0.85207400  0.38618200  1
  C  2303  1  0.10560000  0.91934000  0.39057500  1
  C  2304  1  0.03828790  0.80126200  0.39054100  1
  C  2305  1  0.08983790  0.85101700  0.31843900  1
  C  2306  1  0.13858800  0.83299900  0.44096000  1
  C  2311  1  0.86346100  0.34304200  0.08643100  1
  C  2312  1  0.87950300  0.35549900  0.08072300  1
  C  2313  1  0.87165100  0.37251100  0.08466500  1
  C  2314  1  0.85039300  0.37101700  0.09267300  1
  C  2315  1  0.83810900  0.38648600  0.09725000  1
  C  2316  1  0.84747400  0.40360800  0.09396000  1
  C  2317  1  0.86918400  0.40474600  0.08595000  1
  C  2318  1  0.88134800  0.38929500  0.08127100  1
  C  2319  1  0.89948800  0.35000400  0.07227700  1
  C  2320  1  0.90319900  0.33161800  0.06966500  1
  C  2321  1  0.88706800  0.31864400  0.07516800  1
  C  2322  1  0.86707900  0.32464300  0.08370900  1
  C  2323  1  0.82213900  0.34747300  0.08584600  1
  C  2324  1  0.80689700  0.34024900  0.09817100  1
  C  2325  1  0.81711300  0.33975600  0.11481900  1
  C  2326  1  0.83901700  0.34660500  0.11329900  1
  C  2327  1  0.80836100  0.33426400  0.13137200  1
  C  2328  1  0.82185500  0.33623100  0.14668900  1
  C  2329  1  0.84393200  0.34354300  0.14558600  1
  C  2330  1  0.85272300  0.34832100  0.12862900  1
  C  2331  1  0.81586200  0.34956800  0.06779600  1
  C  2332  1  0.79377500  0.34483400  0.06236900  1
  C  2333  1  0.77860600  0.33747300  0.07509500  1
  C  2334  1  0.78505200  0.33512000  0.09301400  1
  C  2347  1  0.84377800  0.35202900  0.09461400  1
  C  2348  1  0.85646400  0.34634000  0.16149300  1
  C  2349  1  0.78687800  0.34674600  0.04437500  1
  C  2350  1  0.83468300  0.41936300  0.09712800  1
  C  2351  1  0.89181400  0.30002100  0.07406100  1
  C  2356  1  0.36342800  0.15324200  0.89268700  1
  C  2357  1  0.37949700  0.14079900  0.89837700  1
  C  2358  1  0.37168900  0.12378100  0.89440500  1
  C  2359  1  0.35042200  0.12525700  0.88640900  1
  C  2360  1  0.33814900  0.10977800  0.88184600  1
  C  2361  1  0.34753200  0.09266400  0.88514000  1
  C  2362  1  0.36923700  0.09154500  0.89316500  1
  C  2363  1  0.38139400  0.10700500  0.89782500  1
  C  2364  1  0.39946700  0.14631300  0.90683100  1
  C  2365  1  0.40313900  0.16470000  0.90945800  1
  C  2366  1  0.38696200  0.17766100  0.90400600  1
  C  2367  1  0.36699800  0.17164200  0.89544200  1
  C  2368  1  0.32211100  0.14876100  0.89325100  1
  C  2369  1  0.30686600  0.15597700  0.88092500  1
  C  2370  1  0.31709400  0.15649800  0.86428100  1
  C  2371  1  0.33900200  0.14966000  0.86580600  1
  C  2372  1  0.30835100  0.16200100  0.84772900  1
  C  2373  1  0.32186700  0.16006700  0.83242000  1
  C  2374  1  0.34395800  0.15278500  0.83353000  1
  C  2375  1  0.35274600  0.14801000  0.85049000  1
  C  2376  1  0.31582900  0.14665300  0.91129800  1
  C  2377  1  0.29374600  0.15139100  0.91672800  1
  C  2378  1  0.27856700  0.15873400  0.90399800  1
  C  2379  1  0.28501100  0.16108500  0.88607800  1
  C  2392  1  0.34376600  0.14423700  0.88448900  1
  C  2393  1  0.35650300  0.15000500  0.81762700  1
  C  2394  1  0.28686400  0.14951200  0.93472900  1
  C  2395  1  0.33476100  0.07690100  0.88197000  1
  C  2396  1  0.39166100  0.19629100  0.90514800  1
  C  2401  1  0.01686790  0.22076200  0.41100800  1
  C  2402  1  0.00714889  0.23194900  0.42404400  1
  C  2403  1  0.98947000  0.24398400  0.41986100  1
  C  2404  1  0.98038000  0.24430400  0.40218900  1
  C  2405  1  0.99109600  0.23376800  0.38876600  1
  C  2406  1  0.00862789  0.22193200  0.39334400  1
  C  2408  1  0.96215800  0.25580400  0.39663500  1
  C  2409  1  0.94406500  0.26053800  0.40805200  1
  C  2410  1  0.92741300  0.27269600  0.40256400  1
  C  2411  1  0.92770300  0.28003600  0.38515400  1
  C  2412  1  0.94442400  0.27400500  0.37313800  1
  C  2413  1  0.96114900  0.26171600  0.37854300  1
  C  2418  1  0.97795400  0.25500700  0.36537400  1
  C  2419  1  0.98401400  0.23533700  0.36970200  1
  C  2431  1  0.51706900  0.27539000  0.56784100  1
  C  2432  1  0.50739500  0.26410900  0.55486400  1
  C  2433  1  0.48968600  0.25211500  0.55908800  1
  C  2434  1  0.48052400  0.25192800  0.57673800  1
  C  2435  1  0.49117400  0.26257000  0.59010800  1
  C  2436  1  0.50874100  0.27436000  0.58549200  1
  C  2438  1  0.46228600  0.24046100  0.58233200  1
  C  2439  1  0.44424700  0.23562500  0.57090500  1
  C  2440  1  0.42757800  0.22350100  0.57644300  1
  C  2441  1  0.42784600  0.21625600  0.59389100  1
  C  2442  1  0.44452700  0.22236700  0.60589900  1
  C  2443  1  0.46122400  0.23466500  0.60046100  1
  C  2448  1  0.47796100  0.24149400  0.61362400  1
  C  2449  1  0.48401000  0.26113800  0.60916500  1
  C  2461  1  0.26471900  0.82544800  0.95946600  1
  C  2462  1  0.25576400  0.81200100  0.97056000  1
  C  2463  1  0.23911000  0.81579000  0.98360200  1
  C  2464  1  0.23024000  0.83347500  0.98504300  1
  C  2465  1  0.24018700  0.84726000  0.97450300  1
  C  2466  1  0.25673000  0.84307900  0.96167300  1
  C  2468  1  0.21292300  0.83862900  0.99755100  1
  C  2469  1  0.19501800  0.82712200  0.00251100  1
  C  2470  1  0.17898600  0.83230000  0.01530900  1
  C  2471  1  0.17980200  0.84946100  0.02317500  1
  C  2472  1  0.19643000  0.86155300  0.01716200  1
  C  2473  1  0.21247100  0.85648800  0.00417900  1
  C  2478  1  0.22895800  0.86981300  0.99728300  1
  C  2479  1  0.23347200  0.86628600  0.97719500  1
  C  2491  1  0.76474100  0.67060100  0.01961400  1
  C  2492  1  0.75579000  0.68409100  0.00856900  1
  C  2493  1  0.73916500  0.68034300  0.99549200  1
  C  2494  1  0.73030300  0.66266300  0.99397800  1
  C  2495  1  0.74027000  0.64883600  0.00445300  1
  C  2496  1  0.75679900  0.65297100  0.01730900  1
  C  2498  1  0.71300100  0.65755200  0.98144100  1
  C  2499  1  0.69508100  0.66906900  0.97653500  1
  C  2500  1  0.67903800  0.66393100  0.96372900  1
  C  2501  1  0.67985600  0.64679800  0.95580800  1
  C  2502  1  0.69649900  0.63468900  0.96176300  1
  C  2503  1  0.71255800  0.63971700  0.97474500  1
  C  2508  1  0.72906300  0.62637600  0.98157900  1
  C  2509  1  0.73357100  0.62981900  0.00168300  1
  C  2521  1  0.42062700  0.77831100  0.56746800  1
  C  2522  1  0.42948100  0.76731100  0.55389900  1
  C  2523  1  0.44609900  0.75419100  0.55752200  1
  C  2524  1  0.45504700  0.75256500  0.57516400  1
  C  2525  1  0.44518400  0.76299600  0.58907200  1
  C  2526  1  0.42868200  0.77591500  0.58505400  1
  C  2528  1  0.47231800  0.73995000  0.58016200  1
  C  2529  1  0.49016200  0.73503400  0.56857300  1
  C  2530  1  0.50615200  0.72214100  0.57360300  1
  C  2531  1  0.50539800  0.71416300  0.59071000  1
  C  2532  1  0.48883000  0.72011300  0.60288900  1
  C  2533  1  0.47281000  0.73316600  0.59796300  1
  C  2538  1  0.45640100  0.73998600  0.61138600  1
  C  2539  1  0.45197400  0.76012000  0.60805300  1
  C  2551  1  0.92042500  0.71800000  0.41179600  1
  C  2552  1  0.92930000  0.72906000  0.42530500  1
  C  2553  1  0.94597100  0.74211900  0.42161600  1
  C  2554  1  0.95494900  0.74361900  0.40397200  1
  C  2555  1  0.94508400  0.73311400  0.39012100  1
  C  2556  1  0.92852300  0.72026200  0.39420300  1
  C  2558  1  0.97225100  0.75618400  0.39890700  1
  C  2559  1  0.99008000  0.76116600  0.41048200  1
  C  2560  1  0.00608689  0.77402000  0.40538600  1
  C  2561  1  0.00532489  0.78192600  0.38824600  1
  C  2562  1  0.98876600  0.77591500  0.37609100  1
  C  2563  1  0.97276300  0.76286800  0.38106800  1
  C  2568  1  0.95637200  0.75596900  0.36767100  1
  C  2569  1  0.95191200  0.73586100  0.37113200  1
  C  2581  1  0.17194400  0.17036100  0.02049700  1
  C  2582  1  0.18031700  0.18403500  0.00938700  1
  C  2583  1  0.19638800  0.18053500  0.99581500  1
  C  2584  1  0.20525500  0.16290900  0.99380200  1
  C  2585  1  0.19591000  0.14891100  0.00440900  1
  C  2586  1  0.17996400  0.15281100  0.01778800  1
  C  2588  1  0.22192100  0.15802000  0.98065500  1
  C  2589  1  0.23959700  0.16962600  0.97541200  1
  C  2590  1  0.25508900  0.16466500  0.96212000  1
  C  2591  1  0.25389100  0.14765400  0.95397600  1
  C  2592  1  0.23744900  0.13547900  0.96012100  1
  C  2593  1  0.22202000  0.14029800  0.97365300  1
  C  2598  1  0.20592700  0.12682500  0.98084100  1
  C  2599  1  0.20253200  0.12995600  0.00113700  1
  C  2611  1  0.67202000  0.32605100  0.95853200  1
  C  2612  1  0.68038400  0.31234900  0.96961200  1
  C  2613  1  0.69640800  0.31582300  0.98322500  1
  C  2614  1  0.70525600  0.33344800  0.98530000  1
  C  2615  1  0.69589100  0.34747300  0.97474100  1
  C  2616  1  0.67997900  0.34360200  0.96132800  1
  C  2618  1  0.72190000  0.33830500  0.99847700  1
  C  2619  1  0.73959700  0.32670000  0.00367600  1
  C  2620  1  0.75509600  0.33163600  0.01697100  1
  C  2621  1  0.75389000  0.34862500  0.02515400  1
  C  2622  1  0.73742400  0.36080400  0.01905900  1
  C  2623  1  0.72197900  0.35600700  0.00553000  1
  C  2628  1  0.70585900  0.36948600  0.99839100  1
  C  2629  1  0.70247900  0.36642400  0.97808400  1
  C  2641  1  0.51644800  0.72053900  0.91110500  1
  C  2642  1  0.50695300  0.73183800  0.92414900  1
  C  2643  1  0.48951400  0.74409000  0.91996600  1
  C  2644  1  0.48045400  0.74453100  0.90228800  1
  C  2645  1  0.49090700  0.73382900  0.88887100  1
  C  2646  1  0.50818500  0.72177100  0.89345100  1
  C  2648  1  0.46257200  0.75633100  0.89670800  1
  C  2649  1  0.44453500  0.76129600  0.90808000  1
  C  2650  1  0.42819400  0.77369400  0.90255500  1
  C  2651  1  0.42878500  0.78106600  0.88516700  1
  C  2652  1  0.44546600  0.77489300  0.87320200  1
  C  2653  1  0.46183900  0.76232400  0.87863000  1
  C  2658  1  0.47849400  0.75532900  0.86549000  1
  C  2659  1  0.48391400  0.73553700  0.86979700  1
  C  2671  1  0.01659290  0.77569000  0.06774100  1
  C  2672  1  0.00704089  0.76437900  0.05473400  1
  C  2673  1  0.98951100  0.75222000  0.05894300  1
  C  2674  1  0.98042300  0.75187900  0.07661300  1
  C  2675  1  0.99090900  0.76260100  0.08999800  1
  C  2676  1  0.00828189  0.77456200  0.08539100  1
  C  2678  1  0.96250400  0.74012800  0.08222900  1
  C  2679  1  0.94447600  0.73512600  0.07086500  1
  C  2680  1  0.92815900  0.72271600  0.07640700  1
  C  2681  1  0.92881900  0.71532100  0.09378300  1
  C  2682  1  0.94548100  0.72153700  0.10574300  1
  C  2683  1  0.96178000  0.73416600  0.10031600  1
  C  2688  1  0.97841000  0.74120800  0.11345200  1
  C  2689  1  0.98387700  0.76097900  0.10907000  1
  C  2701  1  0.76743600  0.32636100  0.46241800  1
  C  2702  1  0.75757400  0.31341400  0.47363200  1
  C  2703  1  0.73972300  0.31768500  0.48547500  1
  C  2704  1  0.73062500  0.33535700  0.48558000  1
  C  2705  1  0.74142900  0.34869000  0.47498600  1
  C  2706  1  0.75913400  0.34402600  0.46335000  1
  C  2708  1  0.71228500  0.34100800  0.49691200  1
  C  2709  1  0.69415900  0.32963200  0.50165700  1
  C  2710  1  0.67741800  0.33521800  0.51369500  1
  C  2711  1  0.67770300  0.35267100  0.52094000  1
  C  2712  1  0.69445400  0.36463900  0.51487500  1
  C  2713  1  0.71123600  0.35914800  0.50267600  1
  C  2718  1  0.72808800  0.37226500  0.49593900  1
  C  2719  1  0.73431400  0.36776200  0.47633900  1
  C  2731  1  0.26740700  0.16970700  0.51662100  1
  C  2732  1  0.25752400  0.18268400  0.50545500  1
  C  2733  1  0.23970500  0.17842600  0.49357600  1
  C  2734  1  0.23064500  0.16074300  0.49340900  1
  C  2735  1  0.24151000  0.14737900  0.50392500  1
  C  2736  1  0.25920000  0.15202400  0.51558500  1
  C  2738  1  0.21230700  0.15511000  0.48206600  1
  C  2739  1  0.19413700  0.16647800  0.47740400  1
  C  2740  1  0.17737200  0.16091600  0.46537700  1
  C  2741  1  0.17767300  0.14349200  0.45806900  1
  C  2742  1  0.19446800  0.13151900  0.46405500  1
  C  2743  1  0.21128500  0.13699200  0.47623200  1
  C  2748  1  0.22819100  0.12387600  0.48288400  1
  C  2749  1  0.23444700  0.12830000  0.50249400  1
  C  2761  1  0.92161300  0.27901500  0.06714000  1
  C  2762  1  0.93003600  0.26794000  0.05346000  1
  C  2763  1  0.94618300  0.25442500  0.05695200  1
  C  2764  1  0.95508200  0.25244600  0.07457300  1
  C  2765  1  0.94569000  0.26302000  0.08857600  1
  C  2766  1  0.92967700  0.27634700  0.08468200  1
  C  2768  1  0.97178300  0.23933200  0.07946100  1
  C  2769  1  0.98948900  0.23414500  0.06785900  1
  C  2770  1  0.00502089  0.22088300  0.07281900  1
  C  2771  1  0.00388189  0.21276800  0.08984300  1
  C  2772  1  0.98740200  0.21885600  0.10201400  1
  C  2773  1  0.97190000  0.23232800  0.09718300  1
  C  2778  1  0.95577300  0.23947500  0.11065400  1
  C  2779  1  0.95233100  0.25976500  0.10753000  1
  C  2791  1  0.42146300  0.21724400  0.91208400  1
  C  2792  1  0.42992800  0.22833500  0.92573400  1
  C  2793  1  0.44613400  0.24179700  0.92220800  1
  C  2794  1  0.45505000  0.24370100  0.90458600  1
  C  2795  1  0.44563600  0.23310500  0.89061200  1
  C  2796  1  0.42955300  0.21983900  0.89453600  1
  C  2798  1  0.47179300  0.25677000  0.89966200  1
  C  2799  1  0.48949700  0.26197900  0.91125700  1
  C  2800  1  0.50505200  0.27521200  0.90626700  1
  C  2801  1  0.50390000  0.28330900  0.88923400  1
  C  2802  1  0.48742600  0.27719800  0.87707100  1
  C  2803  1  0.47192700  0.26373000  0.88192200  1
  C  2808  1  0.45580500  0.25655900  0.86846200  1
  C  2809  1  0.45230500  0.23628500  0.87165100  1
  C  2821  1  0.66883900  0.66947500  0.51731800  1
  C  2822  1  0.67828700  0.68257700  0.50605900  1
  C  2823  1  0.69575100  0.67848200  0.49379800  1
  C  2824  1  0.70488000  0.66082800  0.49329300  1
  C  2825  1  0.69451000  0.64735800  0.50398100  1
  C  2826  1  0.67719600  0.65185100  0.51604100  1
  C  2828  1  0.72276300  0.65532400  0.48144800  1
  C  2829  1  0.74072800  0.66675300  0.47644800  1
  C  2830  1  0.75703000  0.66130400  0.46398000  1
  C  2831  1  0.75641400  0.64395400  0.45651000  1
  C  2832  1  0.73982100  0.63193300  0.46271900  1
  C  2833  1  0.72353200  0.63726900  0.47539600  1
  C  2838  1  0.70697000  0.62406200  0.48240600  1
  C  2839  1  0.70159400  0.62831100  0.50221800  1
  C  2851  1  0.16885800  0.82694000  0.46179500  1
  C  2852  1  0.17832300  0.81381000  0.47301600  1
  C  2853  1  0.19575500  0.81789300  0.48530800  1
  C  2854  1  0.20484800  0.83555700  0.48587200  1
  C  2855  1  0.19441900  0.84905500  0.47525600  1
  C  2856  1  0.17712400  0.84457900  0.46317100  1
  C  2858  1  0.22273100  0.84103900  0.49772700  1
  C  2859  1  0.24074000  0.82961900  0.50264500  1
  C  2860  1  0.25707300  0.83504600  0.51509700  1
  C  2861  1  0.25644700  0.85236700  0.52262300  1
  C  2862  1  0.23980900  0.86439200  0.51649300  1
  C  2863  1  0.22347900  0.85907500  0.50384100  1
  C  2868  1  0.20686200  0.87228100  0.49691500  1
  C  2869  1  0.20145100  0.86810700  0.47709100  1
  C  2881  1  0.08139790  0.15874000  0.28671600  1
  C  2882  1  0.08090590  0.17260500  0.27395300  1
  C  2883  1  0.07904090  0.16920700  0.25539300  1
  C  2884  1  0.07667690  0.15126600  0.24914700  1
  C  2885  1  0.07774390  0.13717700  0.26198500  1
  C  2886  1  0.08006390  0.14100900  0.28036500  1
  C  2888  1  0.07771190  0.14645400  0.23045100  1
  C  2889  1  0.06899690  0.15734400  0.21659300  1
  C  2890  1  0.07355490  0.15358500  0.19855500  1
  C  2891  1  0.08633290  0.13840200  0.19365500  1
  C  2892  1  0.09308790  0.12652200  0.20730900  1
  C  2893  1  0.08821290  0.13005200  0.22544700  1
  C  2898  1  0.09486890  0.11688400  0.23940500  1
  C  2899  1  0.07888690  0.11827100  0.25574400  1
  C  2911  1  0.58135200  0.33738400  0.69228400  1
  C  2912  1  0.58082700  0.32352100  0.70504800  1
  C  2913  1  0.57895500  0.32692800  0.72360500  1
  C  2914  1  0.57660600  0.34487500  0.72983600  1
  C  2915  1  0.57768500  0.35896200  0.71699900  1
  C  2916  1  0.58000800  0.35511900  0.69862100  1
  C  2918  1  0.57760600  0.34969200  0.74853200  1
  C  2919  1  0.56884500  0.33881600  0.76238400  1
  C  2920  1  0.57335400  0.34258300  0.78042900  1
  C  2921  1  0.58618100  0.35773900  0.78533400  1
  C  2922  1  0.59298100  0.36960900  0.77168600  1
  C  2923  1  0.58811500  0.36608800  0.75354500  1
  C  2928  1  0.59480800  0.37924900  0.73959000  1
  C  2929  1  0.57884800  0.37786900  0.72323600  1
  C  2941  1  0.33050300  0.95164700  0.90114300  1
  C  2942  1  0.32981700  0.96459800  0.91482800  1
  C  2943  1  0.32813200  0.98311500  0.91114000  1
  C  2944  1  0.32609300  0.98909800  0.89308500  1
  C  2945  1  0.32726200  0.97606100  0.87919300  1
  C  2946  1  0.32947400  0.95774200  0.88331100  1
  C  2948  1  0.32723200  0.00771900  0.88801600  1
  C  2949  1  0.31839300  0.02174200  0.89862600  1
  C  2950  1  0.32301500  0.03971700  0.89462700  1
  C  2951  1  0.33601300  0.04437300  0.87948100  1
  C  2952  1  0.34288200  0.03053900  0.86785500  1
  C  2953  1  0.33794000  0.01246400  0.87162200  1
  C  2958  1  0.34476300  0.99830400  0.85872600  1
  C  2959  1  0.32871000  0.98202000  0.86020800  1
  C  2971  1  0.83049800  0.54461900  0.07796600  1
  C  2972  1  0.82980200  0.53167000  0.06428000  1
  C  2973  1  0.82807500  0.51315600  0.06796400  1
  C  2974  1  0.82597000  0.50716500  0.08601300  1
  C  2975  1  0.82718700  0.52020200  0.09990700  1
  C  2976  1  0.82941700  0.53852300  0.09579600  1
  C  2978  1  0.82711800  0.48854600  0.09108900  1
  C  2979  1  0.81827600  0.47452400  0.08048000  1
  C  2980  1  0.82289900  0.45654900  0.08447600  1
  C  2981  1  0.83589900  0.45189200  0.09961900  1
  C  2982  1  0.84277000  0.46572300  0.11124700  1
  C  2983  1  0.83783500  0.48379900  0.10748000  1
  C  2988  1  0.84465800  0.49795500  0.12037700  1
  C  2989  1  0.82860700  0.51424000  0.11889300  1
  C  3001  1  0.84822500  0.34357500  0.28785400  1
  C  3002  1  0.85026100  0.32843500  0.27673900  1
  C  3003  1  0.85474200  0.32983000  0.25820600  1
  C  3004  1  0.85835800  0.34699600  0.25036200  1
  C  3005  1  0.85592600  0.36235700  0.26152500  1
  C  3006  1  0.85090300  0.36052000  0.27987300  1
  C  3008  1  0.85969400  0.34981900  0.23126500  1
  C  3009  1  0.86942000  0.33738400  0.21923500  1
  C  3010  1  0.86644000  0.33904400  0.20066700  1
  C  3011  1  0.85427800  0.35358400  0.19342300  1
  C  3012  1  0.84688500  0.36710000  0.20523600  1
  C  3013  1  0.85015700  0.36566800  0.22386400  1
  C  3018  1  0.84241700  0.38038800  0.23577200  1
  C  3019  1  0.85626500  0.38051100  0.25333000  1
  C  3031  1  0.34830500  0.15260800  0.69129400  1
  C  3032  1  0.35034100  0.16776100  0.70239700  1
  C  3033  1  0.35481300  0.16637500  0.72093000  1
  C  3034  1  0.35844000  0.14921500  0.72877700  1
  C  3035  1  0.35604300  0.13384200  0.71762700  1
  C  3036  1  0.35102600  0.13566800  0.69927600  1
  C  3038  1  0.35979200  0.14640400  0.74787600  1
  C  3039  1  0.36951800  0.15885100  0.75989500  1
  C  3040  1  0.36656400  0.15719700  0.77846600  1
  C  3041  1  0.35436500  0.14267800  0.78571800  1
  C  3042  1  0.34697200  0.12915200  0.77391700  1
  C  3043  1  0.35026700  0.13055500  0.75529000  1
  C  3048  1  0.34255000  0.11581900  0.74339400  1
  C  3049  1  0.35639700  0.11569400  0.72583500  1
  C  3061  1  0.59981600  0.54571600  0.89524700  1
  C  3062  1  0.60205300  0.53436100  0.91019400  1
  C  3063  1  0.60627000  0.51582000  0.90845000  1
  C  3064  1  0.60947800  0.50823700  0.89111800  1
  C  3065  1  0.60690600  0.51965000  0.87596200  1
  C  3066  1  0.60208300  0.53798800  0.87814600  1
  C  3068  1  0.61064800  0.48918800  0.88799600  1
  C  3069  1  0.62055100  0.47694500  0.90012800  1
  C  3070  1  0.61743700  0.45841800  0.89822500  1
  C  3071  1  0.60492400  0.45144000  0.88373700  1
  C  3072  1  0.59737900  0.46347700  0.87047300  1
  C  3073  1  0.60079100  0.48206600  0.87214200  1
  C  3078  1  0.59283300  0.49423200  0.85770900  1
  C  3079  1  0.60679800  0.51173200  0.85768200  1
  C  3091  1  0.09959290  0.95044700  0.08381200  1
  C  3092  1  0.10181600  0.96180000  0.06886400  1
  C  3093  1  0.10611000  0.98033000  0.07059900  1
  C  3094  1  0.10940700  0.98791200  0.08792300  1
  C  3095  1  0.10678200  0.97650600  0.10308300  1
  C  3096  1  0.10192400  0.95817100  0.10090800  1
  C  3098  1  0.11061800  0.00695800  0.09105300  1
  C  3099  1  0.12053800  0.01918500  0.07891200  1
  C  3100  1  0.11747400  0.03771700  0.08081600  1
  C  3101  1  0.10500000  0.04471500  0.09531500  1
  C  3102  1  0.09743490  0.03269400  0.10858500  1
  C  3103  1  0.10078500  0.01409700  0.10690800  1
  C  3108  1  0.09280590  0.00194700  0.12134600  1
  C  3109  1  0.10672800  0.98442500  0.12136300  1
  C  3121  1  0.35444300  0.83683900  0.69343800  1
  C  3122  1  0.35482500  0.82312600  0.70636800  1
  C  3123  1  0.35621600  0.82674300  0.72491400  1
  C  3124  1  0.35826300  0.84476900  0.73098900  1
  C  3125  1  0.35740400  0.85869900  0.71797200  1
  C  3126  1  0.35548100  0.85464600  0.69961500  1
  C  3128  1  0.35675700  0.84980300  0.74960900  1
  C  3129  1  0.36519800  0.83910900  0.76372200  1
  C  3130  1  0.36031400  0.84312800  0.78164900  1
  C  3131  1  0.34750900  0.85840700  0.78619900  1
  C  3132  1  0.34095700  0.87006400  0.77229500  1
  C  3133  1  0.34611500  0.86625400  0.75426400  1
  C  3138  1  0.33969100  0.87921700  0.74004900  1
  C  3139  1  0.35604900  0.87767800  0.72396500  1
  C  3151  1  0.85447200  0.65949900  0.28569400  1
  C  3152  1  0.85489400  0.67320600  0.27275700  1
  C  3153  1  0.85630000  0.66957000  0.25421700  1
  C  3154  1  0.85833500  0.65153900  0.24816400  1
  C  3155  1  0.85745700  0.63761300  0.26118300  1
  C  3156  1  0.85552200  0.64168400  0.27953600  1
  C  3158  1  0.85687300  0.64649300  0.22954500  1
  C  3159  1  0.86536500  0.65716900  0.21543600  1
  C  3160  1  0.86053500  0.65313600  0.19750400  1
  C  3161  1  0.84768200  0.63788400  0.19294900  1
  C  3162  1  0.84107700  0.62624100  0.20685000  1
  C  3163  1  0.84621900  0.63004800  0.22488500  1
  C  3168  1  0.83975300  0.61709800  0.23909900  1
  C  3169  1  0.85608400  0.61863200  0.25520200  1
  C  3181  1  0.58548500  0.65376300  0.69212300  1
  C  3182  1  0.58355000  0.66873100  0.70349100  1
  C  3183  1  0.57962800  0.66703300  0.72207800  1
  C  3184  1  0.57640700  0.64972900  0.72972300  1
  C  3185  1  0.57864600  0.63455000  0.71829600  1
  C  3186  1  0.58318200  0.63668600  0.69990100  1
  C  3188  1  0.57545500  0.64663100  0.74879200  1
  C  3189  1  0.56583000  0.65883400  0.76110700  1
  C  3190  1  0.56898500  0.65684500  0.77962200  1
  C  3191  1  0.58123600  0.64219200  0.78655300  1
  C  3192  1  0.58856300  0.62891700  0.77444000  1
  C  3193  1  0.58514400  0.63068700  0.75585400  1
  C  3198  1  0.59284600  0.61622000  0.74362400  1
  C  3199  1  0.57867400  0.61627400  0.72622700  1
  C  3211  1  0.08537890  0.84244400  0.28689600  1
  C  3212  1  0.08343890  0.82746100  0.27555000  1
  C  3213  1  0.07949690  0.82913200  0.25696400  1
  C  3214  1  0.07622290  0.84642000  0.24929500  1
  C  3215  1  0.07850590  0.86161700  0.26070100  1
  C  3216  1  0.08303990  0.85950700  0.27910000  1
  C  3218  1  0.07529790  0.84949900  0.23022200  1
  C  3219  1  0.06568490  0.83727900  0.21792000  1
  C  3220  1  0.06887690  0.83922800  0.19940500  1
  C  3221  1  0.08114790  0.85386300  0.19246100  1
  C  3222  1  0.08845990  0.86716300  0.20455600  1
  C  3223  1  0.08501690  0.86542600  0.22314200  1
  C  3228  1  0.09270590  0.87991100  0.23535300  1
  C  3229  1  0.07852390  0.87988100  0.25274200  1
  C  3241  1  0.83162100  0.45152800  0.40029700  1
  C  3242  1  0.83140300  0.46436100  0.41410400  1
  C  3243  1  0.82980700  0.48292400  0.41063700  1
  C  3244  1  0.82743000  0.48912300  0.39268000  1
  C  3245  1  0.82814600  0.47620600  0.37864800  1
  C  3246  1  0.83021600  0.45781800  0.38254800  1
  C  3248  1  0.82875200  0.50779200  0.38777400  1
  C  3249  1  0.82039800  0.52180200  0.39864900  1
  C  3250  1  0.82514200  0.53977700  0.39472600  1
  C  3251  1  0.83773200  0.54448100  0.37938400  1
  C  3252  1  0.84418200  0.53068400  0.36756300  1
  C  3253  1  0.83913500  0.51260800  0.37126700  1
  C  3258  1  0.84542400  0.49851000  0.35813200  1
  C  3259  1  0.82918600  0.48234800  0.35970500  1
  C  3271  1  0.33163000  0.04479600  0.57874800  1
  C  3272  1  0.33141400  0.03196000  0.56494300  1
  C  3273  1  0.32981700  0.01339800  0.56842000  1
  C  3274  1  0.32742600  0.00721300  0.58637900  1
  C  3275  1  0.32810900  0.02013100  0.60040900  1
  C  3276  1  0.33017800  0.03851700  0.59650100  1
  C  3278  1  0.32871800  0.98854300  0.59129700  1
  C  3279  1  0.32036100  0.97453100  0.58042700  1
  C  3280  1  0.32504800  0.95655200  0.58437800  1
  C  3281  1  0.33763700  0.95185300  0.59972300  1
  C  3282  1  0.34409600  0.96565500  0.61153400  1
  C  3283  1  0.33906900  0.98373100  0.60781900  1
  C  3288  1  0.34535400  0.99783300  0.62094900  1
  C  3289  1  0.32912400  0.01399800  0.61935600  1
  C  3301  1  0.09831290  0.04587300  0.39435700  1
  C  3302  1  0.10006600  0.03464600  0.40944300  1
  C  3303  1  0.10426100  0.01607600  0.40795600  1
  C  3304  1  0.10789900  0.00830200  0.39076000  1
  C  3305  1  0.10587000  0.01959700  0.37546100  1
  C  3306  1  0.10109700  0.03798200  0.37738100  1
  C  3308  1  0.10905800  0.98920600  0.38783100  1
  C  3309  1  0.11849400  0.97701500  0.40025200  1
  C  3310  1  0.11548300  0.95846800  0.39836800  1
  C  3311  1  0.10354700  0.95138600  0.38362600  1
  C  3312  1  0.09641990  0.96337100  0.37016900  1
  C  3313  1  0.09972790  0.98198000  0.37182300  1
  C  3318  1  0.09226890  0.99405700  0.35715000  1
  C  3319  1  0.10631400  0.01151800  0.35725600  1
  C  3331  1  0.59813200  0.45027000  0.58475100  1
  C  3332  1  0.59987000  0.46150800  0.56967500  1
  C  3333  1  0.60412900  0.48006700  0.57116900  1
  C  3334  1  0.60785400  0.48782600  0.58836100  1
  C  3335  1  0.60576500  0.47652400  0.60365600  1
  C  3336  1  0.60096900  0.45814400  0.60173000  1
  C  3338  1  0.60905100  0.50691600  0.59131300  1
  C  3339  1  0.61851500  0.51909800  0.57889900  1
  C  3340  1  0.61556100  0.53764700  0.58079500  1
  C  3341  1  0.60365500  0.54474200  0.59554500  1
  C  3342  1  0.59649800  0.53276300  0.60899900  1
  C  3343  1  0.59974000  0.51414800  0.60732500  1
  C  3348  1  0.59225200  0.50207200  0.62199000  1
  C  3349  1  0.60625100  0.48459200  0.62186700  1
  N  744  1  0.76258300  0.25623700  0.43307200  1
  N  747  1  0.81225200  0.20768600  0.41613700  1
  N  749  1  0.69563600  0.29470200  0.38058000  1
  N  774  1  0.26285200  0.23976700  0.54594800  1
  N  777  1  0.31255200  0.28837800  0.56263400  1
  N  779  1  0.19577600  0.20161100  0.59851400  1
  N  804  1  0.01313600  0.80218900  0.99575100  1
  N  807  1  0.05933600  0.82090400  0.94567600  1
  N  809  1  0.94807100  0.85366900  0.03809300  1
  N  834  1  0.51318600  0.69399100  0.98339700  1
  N  837  1  0.55927500  0.67507800  0.03347200  1
  N  839  1  0.44812000  0.64261600  0.94088200  1
  N  864  1  0.23301900  0.74216300  0.54378800  1
  N  867  1  0.18715900  0.79222900  0.56311800  1
  N  869  1  0.29812700  0.69919100  0.59479100  1
  N  894  1  0.73291300  0.75421800  0.43528300  1
  N  897  1  0.68684800  0.70417000  0.41624000  1
  N  899  1  0.79805500  0.79688200  0.38410200  1
  N  924  1  0.98277100  0.19435700  0.98371500  1
  N  927  1  0.93879900  0.17455400  0.03466800  1
  N  929  1  0.04624500  0.14370800  0.93880500  1
  N  954  1  0.48279100  0.30196700  0.99528900  1
  N  957  1  0.43896600  0.32190400  0.94429800  1
  N  959  1  0.54625700  0.35256400  0.04032400  1
  N  984  1  0.26286700  0.75643600  0.93317300  1
  N  987  1  0.31171200  0.70736500  0.91618900  1
  N  989  1  0.19699300  0.79585600  0.88061600  1
  N  1014  1  0.76281300  0.73985100  0.04577500  1
  N  1017  1  0.81201600  0.78874200  0.06259300  1
  N  1019  1  0.69712400  0.70047400  0.09830800  1
  N  1044  1  0.51270000  0.30457300  0.49778100  1
  N  1047  1  0.56311600  0.32109500  0.44959400  1
  N  1049  1  0.44558400  0.35733500  0.53554700  1
  N  1074  1  0.01264400  0.19157300  0.48132400  1
  N  1077  1  0.06298300  0.17491600  0.52953400  1
  N  1079  1  0.94554300  0.13885300  0.44345700  1
  N  1104  1  0.73263100  0.24234800  0.04312700  1
  N  1107  1  0.68838700  0.29313900  0.06298900  1
  N  1109  1  0.79631300  0.19764700  0.09381300  1
  N  1134  1  0.23261700  0.25390000  0.93600200  1
  N  1137  1  0.18814500  0.20318500  0.91629000  1
  N  1139  1  0.29632100  0.29843200  0.88524100  1
  N  1164  1  0.48336300  0.69174600  0.48149000  1
  N  1167  1  0.43452400  0.67450500  0.53046800  1
  N  1169  1  0.54913900  0.63950600  0.44163300  1
  N  1194  1  0.98340100  0.80459700  0.49757100  1
  N  1197  1  0.93465400  0.82195800  0.44856000  1
  N  1199  1  0.04919100  0.85679500  0.53749900  1
  N  1224  1  0.86270600  0.18362300  0.24334000  1
  N  1227  1  0.86787900  0.16261400  0.30407000  1
  N  1229  1  0.87547100  0.13627200  0.17677400  1
  N  1254  1  0.36260600  0.31252000  0.73566900  1
  N  1257  1  0.36785800  0.33350200  0.67493600  1
  N  1259  1  0.37532100  0.35984800  0.80221800  1
  N  1284  1  0.11170000  0.99535900  0.92540800  1
  N  1287  1  0.11684200  0.93433400  0.90534600  1
  N  1289  1  0.12521700  0.06120900  0.87716900  1
  N  1314  1  0.61161200  0.50090300  0.05370100  1
  N  1317  1  0.61688800  0.56192400  0.07377900  1
  N  1319  1  0.62512000  0.43506100  0.10193400  1
  N  1344  1  0.63351400  0.31419700  0.24757700  1
  N  1347  1  0.62075100  0.34148700  0.30499700  1
  N  1349  1  0.62702800  0.35371700  0.17615400  1
  N  1374  1  0.13354800  0.18200900  0.73155600  1
  N  1377  1  0.12080900  0.15468600  0.67415600  1
  N  1379  1  0.12709800  0.14257000  0.80298200  1
  N  1404  1  0.38509800  0.50494800  0.92392100  1
  N  1407  1  0.37249100  0.56285200  0.89772300  1
  N  1409  1  0.37754800  0.43421100  0.88345700  1
  N  1434  1  0.88498500  0.99120700  0.05513000  1
  N  1437  1  0.87224200  0.93331700  0.08135100  1
  N  1439  1  0.87764900  0.06195400  0.09560700  1
  N  1464  1  0.13343500  0.81244200  0.73707500  1
  N  1467  1  0.12933900  0.83271600  0.67605900  1
  N  1469  1  0.11933800  0.86090800  0.80301600  1
  N  1494  1  0.63353600  0.68386100  0.24203800  1
  N  1497  1  0.62933600  0.66363500  0.30306400  1
  N  1499  1  0.61951500  0.63540000  0.17612900  1
  N  1524  1  0.36213300  0.68250900  0.73290900  1
  N  1527  1  0.37364800  0.65619500  0.67491600  1
  N  1529  1  0.36951600  0.64167600  0.80383500  1
  N  1554  1  0.86197800  0.81364400  0.24614900  1
  N  1557  1  0.87357200  0.84003600  0.30409800  1
  N  1559  1  0.86946800  0.85435400  0.17518900  1
  N  1584  1  0.61374200  0.49499900  0.42499500  1
  N  1587  1  0.61795600  0.43415000  0.40423500  1
  N  1589  1  0.62685100  0.56134100  0.37695700  1
  N  1614  1  0.11377600  0.00131400  0.55407300  1
  N  1617  1  0.11798800  0.06217100  0.57481100  1
  N  1619  1  0.12674800  0.93499100  0.60216300  1
  N  1644  1  0.88267400  0.00537300  0.42351100  1
  N  1647  1  0.87097400  0.06305300  0.39653500  1
  N  1649  1  0.87637500  0.93408400  0.38316300  1
  N  1674  1  0.38258200  0.49079000  0.55562600  1
  N  1677  1  0.37077400  0.43309500  0.58257000  1
  N  1679  1  0.37651100  0.56205200  0.59602500  1
  N  2424  1  0.98206500  0.25623700  0.43307200  1
  N  2427  1  0.03173390  0.20768600  0.41613700  1
  N  2429  1  0.91511800  0.29470200  0.38058000  1
  N  2454  1  0.48233400  0.23976700  0.54594800  1
  N  2457  1  0.53203400  0.28837800  0.56263400  1
  N  2459  1  0.41525800  0.20161100  0.59851400  1
  N  2484  1  0.23261800  0.80218900  0.99575100  1
  N  2487  1  0.27881800  0.82090400  0.94567600  1
  N  2489  1  0.16755300  0.85366900  0.03809300  1
  N  2514  1  0.73266800  0.69399100  0.98339700  1
  N  2517  1  0.77875700  0.67507800  0.03347200  1
  N  2519  1  0.66760200  0.64261600  0.94088200  1
  N  2544  1  0.45250100  0.74216300  0.54378800  1
  N  2547  1  0.40664100  0.79222900  0.56311800  1
  N  2549  1  0.51760900  0.69919100  0.59479100  1
  N  2574  1  0.95239500  0.75421800  0.43528300  1
  N  2577  1  0.90633000  0.70417000  0.41624000  1
  N  2579  1  0.01753690  0.79688200  0.38410200  1
  N  2604  1  0.20225300  0.19435700  0.98371500  1
  N  2607  1  0.15828100  0.17455400  0.03466800  1
  N  2609  1  0.26572700  0.14370800  0.93880500  1
  N  2634  1  0.70227300  0.30196700  0.99528900  1
  N  2637  1  0.65844800  0.32190400  0.94429800  1
  N  2639  1  0.76573900  0.35256400  0.04032400  1
  N  2664  1  0.48234900  0.75643600  0.93317300  1
  N  2667  1  0.53119400  0.70736500  0.91618900  1
  N  2669  1  0.41647500  0.79585600  0.88061600  1
  N  2694  1  0.98229500  0.73985100  0.04577500  1
  N  2697  1  0.03149790  0.78874200  0.06259300  1
  N  2699  1  0.91660600  0.70047400  0.09830800  1
  N  2724  1  0.73218200  0.30457300  0.49778100  1
  N  2727  1  0.78259800  0.32109500  0.44959400  1
  N  2729  1  0.66506600  0.35733500  0.53554700  1
  N  2754  1  0.23212600  0.19157300  0.48132400  1
  N  2757  1  0.28246500  0.17491600  0.52953400  1
  N  2759  1  0.16502500  0.13885300  0.44345700  1
  N  2784  1  0.95211300  0.24234800  0.04312700  1
  N  2787  1  0.90786900  0.29313900  0.06298900  1
  N  2789  1  0.01579490  0.19764700  0.09381300  1
  N  2814  1  0.45209900  0.25390000  0.93600200  1
  N  2817  1  0.40762700  0.20318500  0.91629000  1
  N  2819  1  0.51580300  0.29843200  0.88524100  1
  N  2844  1  0.70284500  0.69174600  0.48149000  1
  N  2847  1  0.65400600  0.67450500  0.53046800  1
  N  2849  1  0.76862100  0.63950600  0.44163300  1
  N  2874  1  0.20288300  0.80459700  0.49757100  1
  N  2877  1  0.15413600  0.82195800  0.44856000  1
  N  2879  1  0.26867300  0.85679500  0.53749900  1
  N  2904  1  0.08218790  0.18362300  0.24334000  1
  N  2907  1  0.08736090  0.16261400  0.30407000  1
  N  2909  1  0.09495290  0.13627200  0.17677400  1
  N  2934  1  0.58208800  0.31252000  0.73566900  1
  N  2937  1  0.58734000  0.33350200  0.67493600  1
  N  2939  1  0.59480300  0.35984800  0.80221800  1
  N  2964  1  0.33118200  0.99535900  0.92540800  1
  N  2967  1  0.33632400  0.93433400  0.90534600  1
  N  2969  1  0.34469900  0.06120900  0.87716900  1
  N  2994  1  0.83109400  0.50090300  0.05370100  1
  N  2997  1  0.83637000  0.56192400  0.07377900  1
  N  2999  1  0.84460200  0.43506100  0.10193400  1
  N  3024  1  0.85299600  0.31419700  0.24757700  1
  N  3027  1  0.84023300  0.34148700  0.30499700  1
  N  3029  1  0.84651000  0.35371700  0.17615400  1
  N  3054  1  0.35303000  0.18200900  0.73155600  1
  N  3057  1  0.34029100  0.15468600  0.67415600  1
  N  3059  1  0.34658000  0.14257000  0.80298200  1
  N  3084  1  0.60458000  0.50494800  0.92392100  1
  N  3087  1  0.59197300  0.56285200  0.89772300  1
  N  3089  1  0.59703000  0.43421100  0.88345700  1
  N  3114  1  0.10446700  0.99120700  0.05513000  1
  N  3117  1  0.09172390  0.93331700  0.08135100  1
  N  3119  1  0.09713090  0.06195400  0.09560700  1
  N  3144  1  0.35291700  0.81244200  0.73707500  1
  N  3147  1  0.34882100  0.83271600  0.67605900  1
  N  3149  1  0.33882000  0.86090800  0.80301600  1
  N  3174  1  0.85301800  0.68386100  0.24203800  1
  N  3177  1  0.84881800  0.66363500  0.30306400  1
  N  3179  1  0.83899700  0.63540000  0.17612900  1
  N  3204  1  0.58161500  0.68250900  0.73290900  1
  N  3207  1  0.59313000  0.65619500  0.67491600  1
  N  3209  1  0.58899800  0.64167600  0.80383500  1
  N  3234  1  0.08145990  0.81364400  0.24614900  1
  N  3237  1  0.09305390  0.84003600  0.30409800  1
  N  3239  1  0.08894990  0.85435400  0.17518900  1
  N  3264  1  0.83322400  0.49499900  0.42499500  1
  N  3267  1  0.83743800  0.43415000  0.40423500  1
  N  3269  1  0.84633300  0.56134100  0.37695700  1
  N  3294  1  0.33325800  0.00131400  0.55407300  1
  N  3297  1  0.33747000  0.06217100  0.57481100  1
  N  3299  1  0.34623000  0.93499100  0.60216300  1
  N  3324  1  0.10215600  0.00537300  0.42351100  1
  N  3327  1  0.09045590  0.06305300  0.39653500  1
  N  3329  1  0.09585690  0.93408400  0.38316300  1
  N  3354  1  0.60206400  0.49079000  0.55562600  1
  N  3357  1  0.59025600  0.43309500  0.58257000  1
  N  3359  1  0.59599300  0.56205200  0.59602500  1
  O  42  1  0.83748600  0.21040100  0.39225800  1
  O  43  1  0.89136000  0.07672800  0.37330200  1
  O  44  1  0.84569100  0.14092800  0.31836700  1
  O  45  1  0.91121000  0.15299000  0.45109900  1
  O  87  1  0.33767600  0.28566900  0.58656500  1
  O  88  1  0.39122700  0.41940900  0.60575300  1
  O  89  1  0.34563000  0.35515000  0.66062400  1
  O  90  1  0.41126400  0.34315400  0.52795000  1
  O  132  1  0.08522200  0.84410200  0.94972000  1
  O  133  1  0.15181200  0.85328200  0.81933300  1
  O  134  1  0.09513200  0.91986800  0.88352000  1
  O  135  1  0.16218900  0.78782800  0.89377100  1
  O  177  1  0.58517600  0.65186200  0.02948400  1
  O  178  1  0.65200700  0.64300100  0.15981700  1
  O  179  1  0.59517300  0.57640800  0.09558700  1
  O  180  1  0.66224300  0.70840700  0.08524500  1
  O  222  1  0.66128900  0.28711700  0.39471400  1
  O  223  1  0.59569800  0.41981000  0.38261300  1
  O  224  1  0.64104900  0.36482500  0.31857000  1
  O  225  1  0.58827100  0.34498200  0.45244800  1
  O  267  1  0.16146100  0.20913400  0.58427900  1
  O  268  1  0.09568000  0.07652000  0.59638800  1
  O  269  1  0.14110400  0.13135700  0.66056400  1
  O  270  1  0.08819100  0.15109100  0.52675600  1
  O  312  1  0.41316600  0.65525100  0.94933600  1
  O  313  1  0.33753300  0.65313300  0.81874400  1
  O  314  1  0.39203200  0.57669700  0.87415100  1
  O  315  1  0.33678700  0.71000200  0.89225300  1
  O  357  1  0.91311600  0.84101500  0.02969500  1
  O  358  1  0.83751600  0.84286100  0.16026700  1
  O  359  1  0.89187200  0.91947800  0.10486900  1
  O  360  1  0.83702500  0.78608300  0.08659000  1
  O  402  1  0.16142900  0.78829800  0.58648800  1
  O  403  1  0.09429800  0.91877600  0.59421000  1
  O  404  1  0.15092900  0.85470600  0.66170600  1
  O  405  1  0.08406100  0.84373800  0.52948200  1
  O  447  1  0.66117900  0.70810200  0.39284400  1
  O  448  1  0.59438200  0.57755000  0.38486400  1
  O  449  1  0.65097300  0.64169200  0.31743800  1
  O  450  1  0.58400100  0.65260500  0.44959600  1
  O  492  1  0.91320700  0.15111700  0.03080100  1
  O  493  1  0.84291700  0.14406500  0.16054900  1
  O  494  1  0.90993500  0.07693600  0.08472200  1
  O  495  1  0.83178600  0.20665200  0.08255500  1
  O  537  1  0.41332800  0.34533000  0.94812200  1
  O  538  1  0.34276000  0.35206400  0.81844200  1
  O  539  1  0.40983900  0.41919100  0.89427400  1
  O  540  1  0.33179800  0.28947100  0.89652200  1
  O  582  1  0.33308700  0.70757100  0.58211000  1
  O  583  1  0.40846100  0.57679400  0.58427600  1
  O  584  1  0.35403600  0.63259400  0.66117400  1
  O  585  1  0.40958000  0.65046200  0.52775700  1
  O  627  1  0.83301000  0.78853800  0.39681700  1
  O  628  1  0.90831400  0.91931300  0.39489700  1
  O  629  1  0.85398200  0.86365000  0.31783600  1
  O  630  1  0.90965100  0.84595200  0.45119400  1
  O  672  1  0.58177100  0.34136500  0.03136100  1
  O  673  1  0.65932700  0.34253900  0.16141000  1
  O  674  1  0.59259500  0.41866300  0.09446000  1
  O  675  1  0.66283400  0.28909300  0.08642000  1
  O  717  1  0.08176500  0.15491800  0.94772700  1
  O  718  1  0.15937500  0.15377700  0.81773300  1
  O  719  1  0.09267200  0.07758600  0.88463400  1
  O  720  1  0.16259700  0.20724700  0.89285500  1
  O  745  1  0.75508400  0.24843800  0.44673600  1
  O  746  1  0.77805700  0.26674700  0.43773700  1
  O  775  1  0.25541600  0.24746700  0.53220600  1
  O  776  1  0.27834000  0.22921700  0.54140200  1
  O  805  1  0.00497200  0.78880200  0.98789100  1
  O  806  1  0.02939500  0.79715500  0.00530600  1
  O  835  1  0.50499900  0.70733900  0.99130700  1
  O  836  1  0.52945100  0.69907700  0.97387600  1
  O  865  1  0.24116200  0.75013400  0.53046100  1
  O  866  1  0.21670800  0.73269300  0.53869700  1
  O  895  1  0.74101300  0.74630900  0.44866600  1
  O  896  1  0.71662700  0.76375200  0.44030500  1
  O  925  1  0.99122400  0.20763900  0.99155800  1
  O  926  1  0.96606000  0.19949400  0.97471800  1
  O  955  1  0.49128300  0.28872000  0.98741300  1
  O  956  1  0.46607000  0.29678600  0.00424500  1
  O  985  1  0.25519700  0.74873200  0.94683200  1
  O  986  1  0.27854800  0.76674800  0.93784900  1
  O  1015  1  0.75521200  0.74753200  0.03208000  1
  O  1016  1  0.77843700  0.72945800  0.04115500  1
  O  1045  1  0.50531000  0.29083900  0.49003900  1
  O  1046  1  0.52804500  0.30000400  0.50845300  1
  O  1075  1  0.00521100  0.20526300  0.48911900  1
  O  1076  1  0.02798100  0.19621300  0.47067400  1
  O  1105  1  0.74103700  0.25022300  0.02984500  1
  O  1106  1  0.71596700  0.23329500  0.03799200  1
  O  1135  1  0.24098400  0.24604200  0.94931000  1
  O  1136  1  0.21598700  0.26300800  0.94110300  1
  O  1165  1  0.49097800  0.70540400  0.48923100  1
  O  1166  1  0.46765900  0.69640900  0.47119300  1
  O  1195  1  0.99105600  0.79098000  0.48978300  1
  O  1196  1  0.96770100  0.79987000  0.50784200  1
  O  1225  1  0.84817300  0.19569600  0.24543500  1
  O  1226  1  0.88207600  0.19039100  0.24459500  1
  O  1255  1  0.34807100  0.30044800  0.73357500  1
  O  1256  1  0.38197500  0.30574700  0.73442400  1
  O  1285  1  0.09699900  0.99350500  0.93739100  1
  O  1286  1  0.13097400  0.99411300  0.93235100  1
  O  1315  1  0.59692200  0.50278400  0.04171200  1
  O  1316  1  0.63089100  0.50211500  0.04676300  1
  O  1345  1  0.64746300  0.30239200  0.25218800  1
  O  1346  1  0.61396700  0.30763800  0.24787000  1
  O  1375  1  0.14747600  0.19383000  0.72694500  1
  O  1376  1  0.11398800  0.18854500  0.73125500  1
  O  1405  1  0.39925100  0.50925000  0.93569100  1
  O  1406  1  0.36563700  0.50528600  0.93063700  1
  O  1435  1  0.89910900  0.98686100  0.04335800  1
  O  1436  1  0.86551900  0.99092200  0.04842000  1
  O  1465  1  0.14812600  0.80043300  0.73533300  1
  O  1466  1  0.11416100  0.80554500  0.73560900  1
  O  1495  1  0.64822800  0.69586800  0.24377900  1
  O  1496  1  0.61426200  0.69076400  0.24348800  1
  O  1525  1  0.34799900  0.69433700  0.72873600  1
  O  1526  1  0.38163900  0.68913400  0.73235600  1
  O  1555  1  0.84785200  0.80182100  0.25035300  1
  O  1556  1  0.88148300  0.80702200  0.24668800  1
  O  1585  1  0.59924100  0.49309500  0.43712400  1
  O  1586  1  0.63312800  0.49357600  0.43170400  1
  O  1615  1  0.09929200  0.00320800  0.54193000  1
  O  1616  1  0.13317000  0.00273500  0.54738000  1
  O  1645  1  0.89657000  0.00976400  0.43543700  1
  O  1646  1  0.86306200  0.00583600  0.42993800  1
  O  1675  1  0.39645400  0.48637100  0.54369100  1
  O  1676  1  0.36296600  0.49038200  0.54920500  1
  O  1722  1  0.05696790  0.21040100  0.39225800  1
  O  1723  1  0.11084200  0.07672800  0.37330200  1
  O  1724  1  0.06517290  0.14092800  0.31836700  1
  O  1725  1  0.13069200  0.15299000  0.45109900  1
  O  1767  1  0.55715800  0.28566900  0.58656500  1
  O  1768  1  0.61070900  0.41940900  0.60575300  1
  O  1769  1  0.56511200  0.35515000  0.66062400  1
  O  1770  1  0.63074600  0.34315400  0.52795000  1
  O  1812  1  0.30470400  0.84410200  0.94972000  1
  O  1813  1  0.37129400  0.85328200  0.81933300  1
  O  1814  1  0.31461400  0.91986800  0.88352000  1
  O  1815  1  0.38167100  0.78782800  0.89377100  1
  O  1857  1  0.80465800  0.65186200  0.02948400  1
  O  1858  1  0.87148900  0.64300100  0.15981700  1
  O  1859  1  0.81465500  0.57640800  0.09558700  1
  O  1860  1  0.88172500  0.70840700  0.08524500  1
  O  1902  1  0.88077100  0.28711700  0.39471400  1
  O  1903  1  0.81518000  0.41981000  0.38261300  1
  O  1904  1  0.86053100  0.36482500  0.31857000  1
  O  1905  1  0.80775300  0.34498200  0.45244800  1
  O  1947  1  0.38094300  0.20913400  0.58427900  1
  O  1948  1  0.31516200  0.07652000  0.59638800  1
  O  1949  1  0.36058600  0.13135700  0.66056400  1
  O  1950  1  0.30767300  0.15109100  0.52675600  1
  O  1992  1  0.63264800  0.65525100  0.94933600  1
  O  1993  1  0.55701500  0.65313300  0.81874400  1
  O  1994  1  0.61151400  0.57669700  0.87415100  1
  O  1995  1  0.55626900  0.71000200  0.89225300  1
  O  2037  1  0.13259800  0.84101500  0.02969500  1
  O  2038  1  0.05699790  0.84286100  0.16026700  1
  O  2039  1  0.11135400  0.91947800  0.10486900  1
  O  2040  1  0.05650690  0.78608300  0.08659000  1
  O  2082  1  0.38091100  0.78829800  0.58648800  1
  O  2083  1  0.31378000  0.91877600  0.59421000  1
  O  2084  1  0.37041100  0.85470600  0.66170600  1
  O  2085  1  0.30354300  0.84373800  0.52948200  1
  O  2127  1  0.88066100  0.70810200  0.39284400  1
  O  2128  1  0.81386400  0.57755000  0.38486400  1
  O  2129  1  0.87045500  0.64169200  0.31743800  1
  O  2130  1  0.80348300  0.65260500  0.44959600  1
  O  2172  1  0.13268900  0.15111700  0.03080100  1
  O  2173  1  0.06239890  0.14406500  0.16054900  1
  O  2174  1  0.12941700  0.07693600  0.08472200  1
  O  2175  1  0.05126790  0.20665200  0.08255500  1
  O  2217  1  0.63281000  0.34533000  0.94812200  1
  O  2218  1  0.56224200  0.35206400  0.81844200  1
  O  2219  1  0.62932100  0.41919100  0.89427400  1
  O  2220  1  0.55128000  0.28947100  0.89652200  1
  O  2262  1  0.55256900  0.70757100  0.58211000  1
  O  2263  1  0.62794300  0.57679400  0.58427600  1
  O  2264  1  0.57351800  0.63259400  0.66117400  1
  O  2265  1  0.62906200  0.65046200  0.52775700  1
  O  2307  1  0.05249190  0.78853800  0.39681700  1
  O  2308  1  0.12779600  0.91931300  0.39489700  1
  O  2309  1  0.07346390  0.86365000  0.31783600  1
  O  2310  1  0.12913300  0.84595200  0.45119400  1
  O  2352  1  0.80125300  0.34136500  0.03136100  1
  O  2353  1  0.87880900  0.34253900  0.16141000  1
  O  2354  1  0.81207700  0.41866300  0.09446000  1
  O  2355  1  0.88231600  0.28909300  0.08642000  1
  O  2397  1  0.30124700  0.15491800  0.94772700  1
  O  2398  1  0.37885700  0.15377700  0.81773300  1
  O  2399  1  0.31215400  0.07758600  0.88463400  1
  O  2400  1  0.38207900  0.20724700  0.89285500  1
  O  2425  1  0.97456600  0.24843800  0.44673600  1
  O  2426  1  0.99753900  0.26674700  0.43773700  1
  O  2455  1  0.47489800  0.24746700  0.53220600  1
  O  2456  1  0.49782200  0.22921700  0.54140200  1
  O  2485  1  0.22445400  0.78880200  0.98789100  1
  O  2486  1  0.24887700  0.79715500  0.00530600  1
  O  2515  1  0.72448100  0.70733900  0.99130700  1
  O  2516  1  0.74893300  0.69907700  0.97387600  1
  O  2545  1  0.46064400  0.75013400  0.53046100  1
  O  2546  1  0.43619000  0.73269300  0.53869700  1
  O  2575  1  0.96049500  0.74630900  0.44866600  1
  O  2576  1  0.93610900  0.76375200  0.44030500  1
  O  2605  1  0.21070600  0.20763900  0.99155800  1
  O  2606  1  0.18554200  0.19949400  0.97471800  1
  O  2635  1  0.71076500  0.28872000  0.98741300  1
  O  2636  1  0.68555200  0.29678600  0.00424500  1
  O  2665  1  0.47467900  0.74873200  0.94683200  1
  O  2666  1  0.49803000  0.76674800  0.93784900  1
  O  2695  1  0.97469400  0.74753200  0.03208000  1
  O  2696  1  0.99791900  0.72945800  0.04115500  1
  O  2725  1  0.72479200  0.29083900  0.49003900  1
  O  2726  1  0.74752700  0.30000400  0.50845300  1
  O  2755  1  0.22469300  0.20526300  0.48911900  1
  O  2756  1  0.24746300  0.19621300  0.47067400  1
  O  2785  1  0.96051900  0.25022300  0.02984500  1
  O  2786  1  0.93544900  0.23329500  0.03799200  1
  O  2815  1  0.46046600  0.24604200  0.94931000  1
  O  2816  1  0.43546900  0.26300800  0.94110300  1
  O  2845  1  0.71046000  0.70540400  0.48923100  1
  O  2846  1  0.68714100  0.69640900  0.47119300  1
  O  2875  1  0.21053800  0.79098000  0.48978300  1
  O  2876  1  0.18718300  0.79987000  0.50784200  1
  O  2905  1  0.06765490  0.19569600  0.24543500  1
  O  2906  1  0.10155800  0.19039100  0.24459500  1
  O  2935  1  0.56755300  0.30044800  0.73357500  1
  O  2936  1  0.60145700  0.30574700  0.73442400  1
  O  2965  1  0.31648100  0.99350500  0.93739100  1
  O  2966  1  0.35045600  0.99411300  0.93235100  1
  O  2995  1  0.81640400  0.50278400  0.04171200  1
  O  2996  1  0.85037300  0.50211500  0.04676300  1
  O  3025  1  0.86694500  0.30239200  0.25218800  1
  O  3026  1  0.83344900  0.30763800  0.24787000  1
  O  3055  1  0.36695800  0.19383000  0.72694500  1
  O  3056  1  0.33347000  0.18854500  0.73125500  1
  O  3085  1  0.61873300  0.50925000  0.93569100  1
  O  3086  1  0.58511900  0.50528600  0.93063700  1
  O  3115  1  0.11859100  0.98686100  0.04335800  1
  O  3116  1  0.08500090  0.99092200  0.04842000  1
  O  3145  1  0.36760800  0.80043300  0.73533300  1
  O  3146  1  0.33364300  0.80554500  0.73560900  1
  O  3175  1  0.86771000  0.69586800  0.24377900  1
  O  3176  1  0.83374400  0.69076400  0.24348800  1
  O  3205  1  0.56748100  0.69433700  0.72873600  1
  O  3206  1  0.60112100  0.68913400  0.73235600  1
  O  3235  1  0.06733390  0.80182100  0.25035300  1
  O  3236  1  0.10096500  0.80702200  0.24668800  1
  O  3265  1  0.81872300  0.49309500  0.43712400  1
  O  3266  1  0.85261000  0.49357600  0.43170400  1
  O  3295  1  0.31877400  0.00320800  0.54193000  1
  O  3296  1  0.35265200  0.00273500  0.54738000  1
  O  3325  1  0.11605200  0.00976400  0.43543700  1
  O  3326  1  0.08254390  0.00583600  0.42993800  1
  O  3355  1  0.61593600  0.48637100  0.54369100  1
  O  3356  1  0.58244800  0.49038200  0.54920500  1
