# generated using pymatgen
data_H19C34(NO)4
_symmetry_space_group_name_H-M   'P 1'
_cell_length_a   51.25990000
_cell_length_b   51.25990000
_cell_length_c   51.25990000
_cell_angle_alpha   90.00000000
_cell_angle_beta   90.00000000
_cell_angle_gamma   90.00000000
_symmetry_Int_Tables_number   1
_chemical_formula_structural   H19C34(NO)4
_chemical_formula_sum   'H684 C1224 N144 O144'
_cell_volume   134689.35210126
_cell_formula_units_Z   36
loop_
 _symmetry_equiv_pos_site_id
 _symmetry_equiv_pos_as_xyz
  1  'x, y, z'
loop_
 _atom_site_type_symbol
 _atom_site_label
 _atom_site_symmetry_multiplicity
 _atom_site_fract_x
 _atom_site_fract_y
 _atom_site_fract_z
 _atom_site_occupancy
  H  49  1  0.04462700  0.65189000  0.49288600  1
  H  50  1  0.04430800  0.60509900  0.49250800  1
  H  51  1  0.96569100  0.65218300  0.51645700  1
  H  52  1  0.96528900  0.60542100  0.51570900  1
  H  53  1  0.00544800  0.59141800  0.55649400  1
  H  54  1  0.00480300  0.55659300  0.59133400  1
  H  55  1  0.00431300  0.52044200  0.52035800  1
  H  56  1  0.00343400  0.48815200  0.48806800  1
  H  57  1  0.00396300  0.59222900  0.45124600  1
  H  58  1  0.00380500  0.55726400  0.41628100  1
  H  59  1  0.04252900  0.49280300  0.40313200  1
  H  60  1  0.04215400  0.49197900  0.35637000  1
  H  61  1  0.96350000  0.51596700  0.40337400  1
  H  62  1  0.96320600  0.51551400  0.35658300  1
  H  63  1  0.00237100  0.45201800  0.41709000  1
  H  64  1  0.00301800  0.41717800  0.45191100  1
  H  65  1  0.00450900  0.45132200  0.59212600  1
  H  66  1  0.00326800  0.41638000  0.55718200  1
  H  67  1  0.96349200  0.40351600  0.49313600  1
  H  68  1  0.96321900  0.35671600  0.49322000  1
  H  69  1  0.04275300  0.40311500  0.51549700  1
  H  70  1  0.04238600  0.35635100  0.51599800  1
  H  71  1  0.04436700  0.51531100  0.60491000  1
  H  72  1  0.04476500  0.51513600  0.65170700  1
  H  73  1  0.96557600  0.49243600  0.65223900  1
  H  74  1  0.96508800  0.49302100  0.60547700  1
  H  123  1  0.49207900  0.04219900  0.65225100  1
  H  124  1  0.49264700  0.04262600  0.60549100  1
  H  125  1  0.51551200  0.96322100  0.65182400  1
  H  126  1  0.51571500  0.96356800  0.60502700  1
  H  127  1  0.55659500  0.00383000  0.59142900  1
  H  128  1  0.59143500  0.00387900  0.55658500  1
  H  129  1  0.52044800  0.00390400  0.52045000  1
  H  130  1  0.48814800  0.00389400  0.48815600  1
  H  131  1  0.45134900  0.00239400  0.59222300  1
  H  132  1  0.41638000  0.00294400  0.55728000  1
  H  133  1  0.40322000  0.04267500  0.49318300  1
  H  134  1  0.35645600  0.04233400  0.49233600  1
  H  135  1  0.40340500  0.96342600  0.51558300  1
  H  136  1  0.35661000  0.96317800  0.51515500  1
  H  137  1  0.41717400  0.00323700  0.45200500  1
  H  138  1  0.45198500  0.00458000  0.41718800  1
  H  139  1  0.59221000  0.00543700  0.45133900  1
  H  140  1  0.55725800  0.00491000  0.41637600  1
  H  141  1  0.49319300  0.96522500  0.40309900  1
  H  142  1  0.49234200  0.96571600  0.35633500  1
  H  143  1  0.51552800  0.04449200  0.40353600  1
  H  144  1  0.51509300  0.04489000  0.35674500  1
  H  145  1  0.60502700  0.04419100  0.51574300  1
  H  146  1  0.65182600  0.04453300  0.51554000  1
  H  147  1  0.65224300  0.96558000  0.49203000  1
  H  148  1  0.60548100  0.96515600  0.49259800  1
  H  197  1  0.65225100  0.49207100  0.04219100  1
  H  198  1  0.60548900  0.49263500  0.04261900  1
  H  199  1  0.65182000  0.51552200  0.96321900  1
  H  200  1  0.60502300  0.51572300  0.96356800  1
  H  201  1  0.59142700  0.55659100  0.00386100  1
  H  202  1  0.55658200  0.59142900  0.00391200  1
  H  203  1  0.52044600  0.52044400  0.00388500  1
  H  204  1  0.48815200  0.48814400  0.00388700  1
  H  205  1  0.59222000  0.45134500  0.00237300  1
  H  206  1  0.55727600  0.41637600  0.00291700  1
  H  207  1  0.49320100  0.40317300  0.04264500  1
  H  208  1  0.49235600  0.35640900  0.04225300  1
  H  209  1  0.51556100  0.40344400  0.96338300  1
  H  210  1  0.51513600  0.35665300  0.96308700  1
  H  211  1  0.45200300  0.41717000  0.00324900  1
  H  212  1  0.41718600  0.45198100  0.00459100  1
  H  213  1  0.45133500  0.59220600  0.00543800  1
  H  214  1  0.41637200  0.55725500  0.00490500  1
  H  215  1  0.40310100  0.49318500  0.96522500  1
  H  216  1  0.35633700  0.49233800  0.96571000  1
  H  217  1  0.40353000  0.51553200  0.04448800  1
  H  218  1  0.35673900  0.51510100  0.04488100  1
  H  219  1  0.51572500  0.60498000  0.04423200  1
  H  220  1  0.51552200  0.65177500  0.04462500  1
  H  221  1  0.49204800  0.65228000  0.96566200  1
  H  222  1  0.49260900  0.60552000  0.96519000  1
  H  271  1  0.54500100  0.15182900  0.00317400  1
  H  272  1  0.54519100  0.10518600  0.00396500  1
  H  273  1  0.46255900  0.15133600  0.00228500  1
  H  274  1  0.46289200  0.10470800  0.00246800  1
  H  275  1  0.50404900  0.09191900  0.05567400  1
  H  276  1  0.50407700  0.05729700  0.09094900  1
  H  277  1  0.50432600  0.02056300  0.02026700  1
  H  278  1  0.50434400  0.98800700  0.98831300  1
  H  279  1  0.50416800  0.09174500  0.95058400  1
  H  280  1  0.50415800  0.05634500  0.91583900  1
  H  281  1  0.54524500  0.00406100  0.90341800  1
  H  282  1  0.54509500  0.00299700  0.85678100  1
  H  283  1  0.46294300  0.00277800  0.90383600  1
  H  284  1  0.46264800  0.00232000  0.85720800  1
  H  285  1  0.50411400  0.95127200  0.91763000  1
  H  286  1  0.50409000  0.91665100  0.95290300  1
  H  287  1  0.50412700  0.95222000  0.09273800  1
  H  288  1  0.50416400  0.91682200  0.05799200  1
  H  289  1  0.46292900  0.90384500  0.00600800  1
  H  290  1  0.46261700  0.85721400  0.00609800  1
  H  291  1  0.54523000  0.90340600  0.00466200  1
  H  292  1  0.54506200  0.85676200  0.00535700  1
  H  293  1  0.54519800  0.00440800  0.10519100  1
  H  294  1  0.54501500  0.00536600  0.15183000  1
  H  295  1  0.46257000  0.00618300  0.15134600  1
  H  296  1  0.46290000  0.00583400  0.10471800  1
  H  345  1  0.00317800  0.54500300  0.15176300  1
  H  346  1  0.00397200  0.54519100  0.10512000  1
  H  347  1  0.00227700  0.46255900  0.15127100  1
  H  348  1  0.00246400  0.46289400  0.10464200  1
  H  349  1  0.05567400  0.50405300  0.09185400  1
  H  350  1  0.09094900  0.50407800  0.05723200  1
  H  351  1  0.02026700  0.50432400  0.02049900  1
  H  352  1  0.98831100  0.50433800  0.98794400  1
  H  353  1  0.95058600  0.50416600  0.09168300  1
  H  354  1  0.91583900  0.50415800  0.05628300  1
  H  355  1  0.90341600  0.54524700  0.00400600  1
  H  356  1  0.85677900  0.54509500  0.00295600  1
  H  357  1  0.90383600  0.46294500  0.00271600  1
  H  358  1  0.85720800  0.46264800  0.00227100  1
  H  359  1  0.91762800  0.50411900  0.95121000  1
  H  360  1  0.95290100  0.50409200  0.91658800  1
  H  361  1  0.09273600  0.50412300  0.95215600  1
  H  362  1  0.05798900  0.50415600  0.91675800  1
  H  363  1  0.00599600  0.46292700  0.90377700  1
  H  364  1  0.00608800  0.46261500  0.85714800  1
  H  365  1  0.00467000  0.54522600  0.90334200  1
  H  366  1  0.00537000  0.54506000  0.85669700  1
  H  367  1  0.10518900  0.54519800  0.00434500  1
  H  368  1  0.15182700  0.54501900  0.00531600  1
  H  369  1  0.15134600  0.46257400  0.00613700  1
  H  370  1  0.10471900  0.46290000  0.00577400  1
  H  419  1  0.15176400  0.00394900  0.54483200  1
  H  420  1  0.10512200  0.00480100  0.54493300  1
  H  421  1  0.15142400  0.00302400  0.46238900  1
  H  422  1  0.10479600  0.00327400  0.46263500  1
  H  423  1  0.09145100  0.05650800  0.50386800  1
  H  424  1  0.05648700  0.09146500  0.50389100  1
  H  425  1  0.02043000  0.02043600  0.50387000  1
  H  426  1  0.98815100  0.98815100  0.50388700  1
  H  427  1  0.09223900  0.95141900  0.50392000  1
  H  428  1  0.05717700  0.91635200  0.50390900  1
  H  429  1  0.00521600  0.90386500  0.54520600  1
  H  430  1  0.00537100  0.85723600  0.54553800  1
  H  431  1  0.00385700  0.90339300  0.46290600  1
  H  432  1  0.00461300  0.85674600  0.46309300  1
  H  433  1  0.95209200  0.91712300  0.50393400  1
  H  434  1  0.91713100  0.95207800  0.50391100  1
  H  435  1  0.95139900  0.09223200  0.50387000  1
  H  436  1  0.91633900  0.05716400  0.50390900  1
  H  437  1  0.90376500  0.00520000  0.46267200  1
  H  438  1  0.85713600  0.00535500  0.46244700  1
  H  439  1  0.90348200  0.00384600  0.54497200  1
  H  440  1  0.85683800  0.00460100  0.54489200  1
  H  441  1  0.00324100  0.10474900  0.54515700  1
  H  442  1  0.00297400  0.15137600  0.54546200  1
  H  443  1  0.00392000  0.15182000  0.46301900  1
  H  444  1  0.00478500  0.10517600  0.46286100  1
  H  451  1  0.99320200  0.54317900  0.27306200  1
  H  452  1  0.99399000  0.54317700  0.31965900  1
  H  459  1  0.97305900  0.47450400  0.18814200  1
  H  460  1  0.03087200  0.53288300  0.19008400  1
  H  461  1  0.02992600  0.53241600  0.23648100  1
  H  462  1  0.01020100  0.46279100  0.27258900  1
  H  475  1  0.01502200  0.54324900  0.73534700  1
  H  476  1  0.01409400  0.54324700  0.68874700  1
  H  483  1  0.03523000  0.47450600  0.82020300  1
  H  484  1  0.97755200  0.53302100  0.81844500  1
  H  485  1  0.97836400  0.53257100  0.77204600  1
  H  486  1  0.99779600  0.46290800  0.73587200  1
  H  499  1  0.27309700  0.99345000  0.54316600  1
  H  500  1  0.31970000  0.99410900  0.54317700  1
  H  507  1  0.18812600  0.97363900  0.47443000  1
  H  508  1  0.19024700  0.03148400  0.53276800  1
  H  509  1  0.23664100  0.03032700  0.53236600  1
  H  510  1  0.27269900  0.01046000  0.46277700  1
  H  523  1  0.73544500  0.01463000  0.54325300  1
  H  524  1  0.68884700  0.01380100  0.54325500  1
  H  531  1  0.82036700  0.03468700  0.47446700  1
  H  532  1  0.81843200  0.97690800  0.53287900  1
  H  533  1  0.77203300  0.97792300  0.53248500  1
  H  534  1  0.73592300  0.99765000  0.46285900  1
  H  547  1  0.54317100  0.27312400  0.99313300  1
  H  548  1  0.54317300  0.31972600  0.99391000  1
  H  555  1  0.47448600  0.18821200  0.97307500  1
  H  556  1  0.53289800  0.19015000  0.03085400  1
  H  557  1  0.53243600  0.23654800  0.02990700  1
  H  558  1  0.46280800  0.27266200  0.01026200  1
  H  571  1  0.54325900  0.73540800  0.01493900  1
  H  572  1  0.54324900  0.68881200  0.01399500  1
  H  579  1  0.47452700  0.82026900  0.03524900  1
  H  580  1  0.53300400  0.81851500  0.97753100  1
  H  581  1  0.53254900  0.77211700  0.97833600  1
  H  582  1  0.46288800  0.73594800  0.99784900  1
  H  595  1  0.54327900  0.99304600  0.73542700  1
  H  596  1  0.54326500  0.99390400  0.68883100  1
  H  603  1  0.47454900  0.97299900  0.82037700  1
  H  604  1  0.53305200  0.03068400  0.81843000  1
  H  605  1  0.53258800  0.02973500  0.77203500  1
  H  606  1  0.46291000  0.01013800  0.73594800  1
  H  619  1  0.54313800  0.01511300  0.27316300  1
  H  620  1  0.54313800  0.01420000  0.31975900  1
  H  627  1  0.47445100  0.03532900  0.18829300  1
  H  628  1  0.53293700  0.97762200  0.19008800  1
  H  629  1  0.53245500  0.97843200  0.23648500  1
  H  630  1  0.46279900  0.99788000  0.27264400  1
  H  643  1  0.99343000  0.27321800  0.46491500  1
  H  644  1  0.99412800  0.31982500  0.46503800  1
  H  651  1  0.97356700  0.18807000  0.53345400  1
  H  652  1  0.03144400  0.19030600  0.47515300  1
  H  653  1  0.03028500  0.23670200  0.47564300  1
  H  654  1  0.01040100  0.27257600  0.54531100  1
  H  667  1  0.01464600  0.73536300  0.46504600  1
  H  668  1  0.01385600  0.68876500  0.46515700  1
  H  675  1  0.03470700  0.82044300  0.53360100  1
  H  676  1  0.97691400  0.81836500  0.47520800  1
  H  677  1  0.97792100  0.77196600  0.47572500  1
  H  678  1  0.99765000  0.73602000  0.54543400  1
  H  691  1  0.27316300  0.54314200  0.01509100  1
  H  692  1  0.31976100  0.54313600  0.01418500  1
  H  699  1  0.18828400  0.47446100  0.03529800  1
  H  700  1  0.19009400  0.53293700  0.97758100  1
  H  701  1  0.23649100  0.53245500  0.97840300  1
  H  702  1  0.27264000  0.46280100  0.99787000  1
  H  715  1  0.73542500  0.54327700  0.99303000  1
  H  716  1  0.68882700  0.54326300  0.99389400  1
  H  723  1  0.82036700  0.47454700  0.97296600  1
  H  724  1  0.81843500  0.53305200  0.03064900  1
  H  725  1  0.77204000  0.53258800  0.02971200  1
  H  726  1  0.73594600  0.46291000  0.01012500  1
  H  781  1  0.20069400  0.80795700  0.64895300  1
  H  782  1  0.20037500  0.76116600  0.64857500  1
  H  783  1  0.12175800  0.80825000  0.67252400  1
  H  784  1  0.12135600  0.76148800  0.67177600  1
  H  785  1  0.16151500  0.74748500  0.71256100  1
  H  786  1  0.16087000  0.71266000  0.74740100  1
  H  787  1  0.16038000  0.67650900  0.67642500  1
  H  788  1  0.15950100  0.64421900  0.64413500  1
  H  789  1  0.16003000  0.74829600  0.60731300  1
  H  790  1  0.15987200  0.71333100  0.57234800  1
  H  791  1  0.19859600  0.64887000  0.55919900  1
  H  792  1  0.19822100  0.64804600  0.51243700  1
  H  793  1  0.11956700  0.67203400  0.55944100  1
  H  794  1  0.11927300  0.67158100  0.51265000  1
  H  795  1  0.15843800  0.60808500  0.57315700  1
  H  796  1  0.15908500  0.57324500  0.60797800  1
  H  797  1  0.16057600  0.60738900  0.74819300  1
  H  798  1  0.15933500  0.57244700  0.71324900  1
  H  799  1  0.11955900  0.55958300  0.64920300  1
  H  800  1  0.11928600  0.51278300  0.64928700  1
  H  801  1  0.19882000  0.55918200  0.67156400  1
  H  802  1  0.19845300  0.51241800  0.67206500  1
  H  803  1  0.20043400  0.67137800  0.76097700  1
  H  804  1  0.20083200  0.67120300  0.80777400  1
  H  805  1  0.12164300  0.64850300  0.80830600  1
  H  806  1  0.12115500  0.64908800  0.76154400  1
  H  855  1  0.64814600  0.19826600  0.80831800  1
  H  856  1  0.64871400  0.19869300  0.76155800  1
  H  857  1  0.67157900  0.11928800  0.80789100  1
  H  858  1  0.67178200  0.11963500  0.76109400  1
  H  859  1  0.71266200  0.15989700  0.74749600  1
  H  860  1  0.74750200  0.15994600  0.71265200  1
  H  861  1  0.67651500  0.15997100  0.67651700  1
  H  862  1  0.64421500  0.15996100  0.64422300  1
  H  863  1  0.60741600  0.15846100  0.74829000  1
  H  864  1  0.57244700  0.15901100  0.71334700  1
  H  865  1  0.55928700  0.19874200  0.64925000  1
  H  866  1  0.51252300  0.19840100  0.64840300  1
  H  867  1  0.55947200  0.11949300  0.67165000  1
  H  868  1  0.51267700  0.11924500  0.67122200  1
  H  869  1  0.57324100  0.15930400  0.60807200  1
  H  870  1  0.60805200  0.16064700  0.57325500  1
  H  871  1  0.74827700  0.16150400  0.60740600  1
  H  872  1  0.71332500  0.16097700  0.57244300  1
  H  873  1  0.64926000  0.12129200  0.55916600  1
  H  874  1  0.64840900  0.12178300  0.51240200  1
  H  875  1  0.67159500  0.20055900  0.55960300  1
  H  876  1  0.67116000  0.20095700  0.51281200  1
  H  877  1  0.76109400  0.20025800  0.67181000  1
  H  878  1  0.80789300  0.20060000  0.67160700  1
  H  879  1  0.80831000  0.12164700  0.64809700  1
  H  880  1  0.76154800  0.12122300  0.64866500  1
  H  929  1  0.80831800  0.64813800  0.19825800  1
  H  930  1  0.76155600  0.64870200  0.19868600  1
  H  931  1  0.80788700  0.67158900  0.11928600  1
  H  932  1  0.76109000  0.67179000  0.11963500  1
  H  933  1  0.74749400  0.71265800  0.15992800  1
  H  934  1  0.71264900  0.74749600  0.15997900  1
  H  935  1  0.67651300  0.67651100  0.15995200  1
  H  936  1  0.64421900  0.64421100  0.15995400  1
  H  937  1  0.74828700  0.60741200  0.15844000  1
  H  938  1  0.71334300  0.57244300  0.15898400  1
  H  939  1  0.64926800  0.55924000  0.19871200  1
  H  940  1  0.64842300  0.51247600  0.19832000  1
  H  941  1  0.67162800  0.55951100  0.11945000  1
  H  942  1  0.67120300  0.51272000  0.11915400  1
  H  943  1  0.60807000  0.57323700  0.15931600  1
  H  944  1  0.57325300  0.60804800  0.16065800  1
  H  945  1  0.60740200  0.74827300  0.16150500  1
  H  946  1  0.57243900  0.71332200  0.16097200  1
  H  947  1  0.55916800  0.64925200  0.12129200  1
  H  948  1  0.51240400  0.64840500  0.12177700  1
  H  949  1  0.55959700  0.67159900  0.20055500  1
  H  950  1  0.51280600  0.67116800  0.20094800  1
  H  951  1  0.67179200  0.76104700  0.20029900  1
  H  952  1  0.67158900  0.80784200  0.20069200  1
  H  953  1  0.64811500  0.80834700  0.12172900  1
  H  954  1  0.64867600  0.76158700  0.12125700  1
  H  1003  1  0.70106800  0.30789600  0.15924100  1
  H  1004  1  0.70125800  0.26125300  0.16003200  1
  H  1005  1  0.61862600  0.30740300  0.15835200  1
  H  1006  1  0.61895900  0.26077500  0.15853500  1
  H  1007  1  0.66011600  0.24798600  0.21174100  1
  H  1008  1  0.66014400  0.21336400  0.24701600  1
  H  1009  1  0.66039300  0.17663000  0.17633400  1
  H  1010  1  0.66041100  0.14407400  0.14438000  1
  H  1011  1  0.66023500  0.24781200  0.10665100  1
  H  1012  1  0.66022500  0.21241200  0.07190640  1
  H  1013  1  0.70131200  0.16012800  0.05948540  1
  H  1014  1  0.70116200  0.15906400  0.01284840  1
  H  1015  1  0.61901000  0.15884500  0.05990340  1
  H  1016  1  0.61871500  0.15838700  0.01327540  1
  H  1017  1  0.66018100  0.10733900  0.07369740  1
  H  1018  1  0.66015700  0.07271840  0.10897000  1
  H  1019  1  0.66019400  0.10828700  0.24880500  1
  H  1020  1  0.66023100  0.07288940  0.21405900  1
  H  1021  1  0.61899600  0.05991240  0.16207500  1
  H  1022  1  0.61868400  0.01328140  0.16216500  1
  H  1023  1  0.70129700  0.05947340  0.16072900  1
  H  1024  1  0.70112900  0.01282940  0.16142400  1
  H  1025  1  0.70126500  0.16047500  0.26125800  1
  H  1026  1  0.70108200  0.16143300  0.30789700  1
  H  1027  1  0.61863700  0.16225000  0.30741300  1
  H  1028  1  0.61896700  0.16190100  0.26078500  1
  H  1077  1  0.15924500  0.70107000  0.30783000  1
  H  1078  1  0.16003900  0.70125800  0.26118700  1
  H  1079  1  0.15834400  0.61862600  0.30733800  1
  H  1080  1  0.15853100  0.61896100  0.26070900  1
  H  1081  1  0.21174100  0.66012000  0.24792100  1
  H  1082  1  0.24701600  0.66014500  0.21329900  1
  H  1083  1  0.17633400  0.66039100  0.17656600  1
  H  1084  1  0.14437800  0.66040500  0.14401100  1
  H  1085  1  0.10665300  0.66023300  0.24775000  1
  H  1086  1  0.07190640  0.66022500  0.21235000  1
  H  1087  1  0.05948340  0.70131400  0.16007300  1
  H  1088  1  0.01284640  0.70116200  0.15902300  1
  H  1089  1  0.05990340  0.61901200  0.15878300  1
  H  1090  1  0.01327540  0.61871500  0.15833800  1
  H  1091  1  0.07369540  0.66018600  0.10727700  1
  H  1092  1  0.10896800  0.66015900  0.07265540  1
  H  1093  1  0.24880300  0.66019000  0.10822300  1
  H  1094  1  0.21405600  0.66022300  0.07282540  1
  H  1095  1  0.16206300  0.61899400  0.05984440  1
  H  1096  1  0.16215500  0.61868200  0.01321540  1
  H  1097  1  0.16073700  0.70129300  0.05940940  1
  H  1098  1  0.16143700  0.70112700  0.01276440  1
  H  1099  1  0.26125600  0.70126500  0.16041200  1
  H  1100  1  0.30789400  0.70108600  0.16138300  1
  H  1101  1  0.30741300  0.61864100  0.16220400  1
  H  1102  1  0.26078600  0.61896700  0.16184100  1
  H  1151  1  0.30783100  0.16001600  0.70089900  1
  H  1152  1  0.26118900  0.16086800  0.70100000  1
  H  1153  1  0.30749100  0.15909100  0.61845600  1
  H  1154  1  0.26086300  0.15934100  0.61870200  1
  H  1155  1  0.24751800  0.21257500  0.65993500  1
  H  1156  1  0.21255400  0.24753200  0.65995800  1
  H  1157  1  0.17649700  0.17650300  0.65993700  1
  H  1158  1  0.14421800  0.14421800  0.65995400  1
  H  1159  1  0.24830600  0.10748600  0.65998700  1
  H  1160  1  0.21324400  0.07241940  0.65997600  1
  H  1161  1  0.16128300  0.05993240  0.70127300  1
  H  1162  1  0.16143800  0.01330340  0.70160500  1
  H  1163  1  0.15992400  0.05946040  0.61897300  1
  H  1164  1  0.16068000  0.01281340  0.61916000  1
  H  1165  1  0.10815900  0.07319040  0.66000100  1
  H  1166  1  0.07319840  0.10814500  0.65997800  1
  H  1167  1  0.10746600  0.24829900  0.65993700  1
  H  1168  1  0.07240640  0.21323100  0.65997600  1
  H  1169  1  0.05983240  0.16126700  0.61873900  1
  H  1170  1  0.01320340  0.16142200  0.61851400  1
  H  1171  1  0.05954940  0.15991300  0.70103900  1
  H  1172  1  0.01290540  0.16066800  0.70095900  1
  H  1173  1  0.15930800  0.26081600  0.70122400  1
  H  1174  1  0.15904100  0.30744300  0.70152900  1
  H  1175  1  0.15998700  0.30788700  0.61908600  1
  H  1176  1  0.16085200  0.26124300  0.61892800  1
  H  1183  1  0.14926900  0.69924600  0.42912900  1
  H  1184  1  0.15005700  0.69924400  0.47572600  1
  H  1191  1  0.12912600  0.63057100  0.34420900  1
  H  1192  1  0.18693900  0.68895000  0.34615100  1
  H  1193  1  0.18599300  0.68848300  0.39254800  1
  H  1194  1  0.16626800  0.61885800  0.42865600  1
  H  1207  1  0.17108900  0.69931600  0.89141400  1
  H  1208  1  0.17016100  0.69931400  0.84481400  1
  H  1215  1  0.19129700  0.63057300  0.97627000  1
  H  1216  1  0.13361900  0.68908800  0.97451200  1
  H  1217  1  0.13443100  0.68863800  0.92811300  1
  H  1218  1  0.15386300  0.61897500  0.89193900  1
  H  1231  1  0.42916400  0.14951700  0.69923300  1
  H  1232  1  0.47576700  0.15017600  0.69924400  1
  H  1239  1  0.34419300  0.12970600  0.63049700  1
  H  1240  1  0.34631400  0.18755100  0.68883500  1
  H  1241  1  0.39270800  0.18639400  0.68843300  1
  H  1242  1  0.42876600  0.16652700  0.61884400  1
  H  1255  1  0.89151200  0.17069700  0.69932000  1
  H  1256  1  0.84491400  0.16986800  0.69932200  1
  H  1263  1  0.97643400  0.19075400  0.63053400  1
  H  1264  1  0.97449900  0.13297500  0.68894600  1
  H  1265  1  0.92810000  0.13399000  0.68855200  1
  H  1266  1  0.89199000  0.15371700  0.61892600  1
  H  1279  1  0.69923800  0.42919100  0.14920000  1
  H  1280  1  0.69924000  0.47579300  0.14997700  1
  H  1287  1  0.63055300  0.34427900  0.12914200  1
  H  1288  1  0.68896500  0.34621700  0.18692100  1
  H  1289  1  0.68850300  0.39261500  0.18597400  1
  H  1290  1  0.61887500  0.42872900  0.16632900  1
  H  1303  1  0.69932600  0.89147500  0.17100600  1
  H  1304  1  0.69931600  0.84487900  0.17006200  1
  H  1311  1  0.63059400  0.97633600  0.19131600  1
  H  1312  1  0.68907100  0.97458200  0.13359800  1
  H  1313  1  0.68861600  0.92818400  0.13440300  1
  H  1314  1  0.61895500  0.89201500  0.15391600  1
  H  1327  1  0.69934600  0.14911300  0.89149400  1
  H  1328  1  0.69933200  0.14997100  0.84489800  1
  H  1335  1  0.63061600  0.12906600  0.97644400  1
  H  1336  1  0.68911900  0.18675100  0.97449700  1
  H  1337  1  0.68865500  0.18580200  0.92810200  1
  H  1338  1  0.61897700  0.16620500  0.89201500  1
  H  1351  1  0.69920500  0.17118000  0.42923000  1
  H  1352  1  0.69920500  0.17026700  0.47582600  1
  H  1359  1  0.63051800  0.19139600  0.34436000  1
  H  1360  1  0.68900400  0.13368900  0.34615500  1
  H  1361  1  0.68852200  0.13449900  0.39255200  1
  H  1362  1  0.61886600  0.15394700  0.42871100  1
  H  1375  1  0.14949700  0.42928500  0.62098200  1
  H  1376  1  0.15019500  0.47589200  0.62110500  1
  H  1383  1  0.12963400  0.34413700  0.68952100  1
  H  1384  1  0.18751100  0.34637300  0.63122000  1
  H  1385  1  0.18635200  0.39276900  0.63171000  1
  H  1386  1  0.16646800  0.42864300  0.70137800  1
  H  1399  1  0.17071300  0.89143000  0.62111300  1
  H  1400  1  0.16992300  0.84483200  0.62122400  1
  H  1407  1  0.19077400  0.97651000  0.68966800  1
  H  1408  1  0.13298100  0.97443200  0.63127500  1
  H  1409  1  0.13398800  0.92803300  0.63179200  1
  H  1410  1  0.15371700  0.89208700  0.70150100  1
  H  1423  1  0.42923000  0.69920900  0.17115800  1
  H  1424  1  0.47582800  0.69920300  0.17025200  1
  H  1431  1  0.34435100  0.63052800  0.19136500  1
  H  1432  1  0.34616100  0.68900400  0.13364800  1
  H  1433  1  0.39255800  0.68852200  0.13447000  1
  H  1434  1  0.42870700  0.61886800  0.15393700  1
  H  1447  1  0.89149200  0.69934400  0.14909700  1
  H  1448  1  0.84489400  0.69933000  0.14996100  1
  H  1455  1  0.97643400  0.63061400  0.12903300  1
  H  1456  1  0.97450200  0.68911900  0.18671600  1
  H  1457  1  0.92810700  0.68865500  0.18577900  1
  H  1458  1  0.89201300  0.61897700  0.16619200  1
  H  1513  1  0.35676200  0.96402500  0.80502100  1
  H  1514  1  0.35644300  0.91723400  0.80464300  1
  H  1515  1  0.27782600  0.96431800  0.82859200  1
  H  1516  1  0.27742400  0.91755600  0.82784400  1
  H  1517  1  0.31758300  0.90355300  0.86862900  1
  H  1518  1  0.31693800  0.86872800  0.90346900  1
  H  1519  1  0.31644800  0.83257700  0.83249300  1
  H  1520  1  0.31556900  0.80028700  0.80020300  1
  H  1521  1  0.31609800  0.90436400  0.76338100  1
  H  1522  1  0.31594000  0.86939900  0.72841600  1
  H  1523  1  0.35466400  0.80493800  0.71526700  1
  H  1524  1  0.35428900  0.80411400  0.66850500  1
  H  1525  1  0.27563500  0.82810200  0.71550900  1
  H  1526  1  0.27534100  0.82764900  0.66871800  1
  H  1527  1  0.31450600  0.76415300  0.72922500  1
  H  1528  1  0.31515300  0.72931300  0.76404600  1
  H  1529  1  0.31664400  0.76345700  0.90426100  1
  H  1530  1  0.31540300  0.72851500  0.86931700  1
  H  1531  1  0.27562700  0.71565100  0.80527100  1
  H  1532  1  0.27535400  0.66885100  0.80535500  1
  H  1533  1  0.35488800  0.71525000  0.82763200  1
  H  1534  1  0.35452100  0.66848600  0.82813300  1
  H  1535  1  0.35650200  0.82744600  0.91704500  1
  H  1536  1  0.35690000  0.82727100  0.96384200  1
  H  1537  1  0.27771100  0.80457100  0.96437400  1
  H  1538  1  0.27722300  0.80515600  0.91761200  1
  H  1587  1  0.80421400  0.35433400  0.96438600  1
  H  1588  1  0.80478200  0.35476100  0.91762600  1
  H  1589  1  0.82764700  0.27535600  0.96395900  1
  H  1590  1  0.82785000  0.27570300  0.91716200  1
  H  1591  1  0.86873000  0.31596500  0.90356400  1
  H  1592  1  0.90357000  0.31601400  0.86872000  1
  H  1593  1  0.83258300  0.31603900  0.83258500  1
  H  1594  1  0.80028300  0.31602900  0.80029100  1
  H  1595  1  0.76348400  0.31452900  0.90435800  1
  H  1596  1  0.72851500  0.31507900  0.86941500  1
  H  1597  1  0.71535500  0.35481000  0.80531800  1
  H  1598  1  0.66859100  0.35446900  0.80447100  1
  H  1599  1  0.71554000  0.27556100  0.82771800  1
  H  1600  1  0.66874500  0.27531300  0.82729000  1
  H  1601  1  0.72930900  0.31537200  0.76414000  1
  H  1602  1  0.76412000  0.31671500  0.72932300  1
  H  1603  1  0.90434500  0.31757200  0.76347400  1
  H  1604  1  0.86939300  0.31704500  0.72851100  1
  H  1605  1  0.80532800  0.27736000  0.71523400  1
  H  1606  1  0.80447700  0.27785100  0.66847000  1
  H  1607  1  0.82766300  0.35662700  0.71567100  1
  H  1608  1  0.82722800  0.35702500  0.66888000  1
  H  1609  1  0.91716200  0.35632600  0.82787800  1
  H  1610  1  0.96396100  0.35666800  0.82767500  1
  H  1611  1  0.96437800  0.27771500  0.80416500  1
  H  1612  1  0.91761600  0.27729100  0.80473300  1
  H  1661  1  0.96438600  0.80420600  0.35432600  1
  H  1662  1  0.91762400  0.80477000  0.35475400  1
  H  1663  1  0.96395500  0.82765700  0.27535400  1
  H  1664  1  0.91715800  0.82785800  0.27570300  1
  H  1665  1  0.90356200  0.86872600  0.31599600  1
  H  1666  1  0.86871700  0.90356400  0.31604700  1
  H  1667  1  0.83258100  0.83257900  0.31602000  1
  H  1668  1  0.80028700  0.80027900  0.31602200  1
  H  1669  1  0.90435500  0.76348000  0.31450800  1
  H  1670  1  0.86941100  0.72851100  0.31505200  1
  H  1671  1  0.80533600  0.71530800  0.35478000  1
  H  1672  1  0.80449100  0.66854400  0.35438800  1
  H  1673  1  0.82769600  0.71557900  0.27551800  1
  H  1674  1  0.82727100  0.66878800  0.27522200  1
  H  1675  1  0.76413800  0.72930500  0.31538400  1
  H  1676  1  0.72932100  0.76411600  0.31672600  1
  H  1677  1  0.76347000  0.90434100  0.31757300  1
  H  1678  1  0.72850700  0.86939000  0.31704000  1
  H  1679  1  0.71523600  0.80532000  0.27736000  1
  H  1680  1  0.66847200  0.80447300  0.27784500  1
  H  1681  1  0.71566500  0.82766700  0.35662300  1
  H  1682  1  0.66887400  0.82723600  0.35701600  1
  H  1683  1  0.82786000  0.91711500  0.35636700  1
  H  1684  1  0.82765700  0.96391000  0.35676000  1
  H  1685  1  0.80418300  0.96441500  0.27779700  1
  H  1686  1  0.80474400  0.91765500  0.27732500  1
  H  1735  1  0.85713600  0.46396400  0.31530900  1
  H  1736  1  0.85732600  0.41732100  0.31610000  1
  H  1737  1  0.77469400  0.46347100  0.31442000  1
  H  1738  1  0.77502700  0.41684300  0.31460300  1
  H  1739  1  0.81618400  0.40405400  0.36780900  1
  H  1740  1  0.81621200  0.36943200  0.40308400  1
  H  1741  1  0.81646100  0.33269800  0.33240200  1
  H  1742  1  0.81647900  0.30014200  0.30044800  1
  H  1743  1  0.81630300  0.40388000  0.26271900  1
  H  1744  1  0.81629300  0.36848000  0.22797400  1
  H  1745  1  0.85738000  0.31619600  0.21555300  1
  H  1746  1  0.85723000  0.31513200  0.16891600  1
  H  1747  1  0.77507800  0.31491300  0.21597100  1
  H  1748  1  0.77478300  0.31445500  0.16934300  1
  H  1749  1  0.81624900  0.26340700  0.22976500  1
  H  1750  1  0.81622500  0.22878600  0.26503800  1
  H  1751  1  0.81626200  0.26435500  0.40487300  1
  H  1752  1  0.81629900  0.22895700  0.37012700  1
  H  1753  1  0.77506400  0.21598000  0.31814300  1
  H  1754  1  0.77475200  0.16934900  0.31823300  1
  H  1755  1  0.85736500  0.21554100  0.31679700  1
  H  1756  1  0.85719700  0.16889700  0.31749200  1
  H  1757  1  0.85733300  0.31654300  0.41732600  1
  H  1758  1  0.85715000  0.31750100  0.46396500  1
  H  1759  1  0.77470500  0.31831800  0.46348100  1
  H  1760  1  0.77503500  0.31796900  0.41685300  1
  H  1809  1  0.31531300  0.85713800  0.46389800  1
  H  1810  1  0.31610700  0.85732600  0.41725500  1
  H  1811  1  0.31441200  0.77469400  0.46340600  1
  H  1812  1  0.31459900  0.77502900  0.41677700  1
  H  1813  1  0.36780900  0.81618800  0.40398900  1
  H  1814  1  0.40308400  0.81621300  0.36936700  1
  H  1815  1  0.33240200  0.81645900  0.33263400  1
  H  1816  1  0.30044600  0.81647300  0.30007900  1
  H  1817  1  0.26272100  0.81630100  0.40381800  1
  H  1818  1  0.22797400  0.81629300  0.36841800  1
  H  1819  1  0.21555100  0.85738200  0.31614100  1
  H  1820  1  0.16891400  0.85723000  0.31509100  1
  H  1821  1  0.21597100  0.77508000  0.31485100  1
  H  1822  1  0.16934300  0.77478300  0.31440600  1
  H  1823  1  0.22976300  0.81625400  0.26334500  1
  H  1824  1  0.26503600  0.81622700  0.22872300  1
  H  1825  1  0.40487100  0.81625800  0.26429100  1
  H  1826  1  0.37012400  0.81629100  0.22889300  1
  H  1827  1  0.31813100  0.77506200  0.21591200  1
  H  1828  1  0.31822300  0.77475000  0.16928300  1
  H  1829  1  0.31680500  0.85736100  0.21547700  1
  H  1830  1  0.31750500  0.85719500  0.16883200  1
  H  1831  1  0.41732400  0.85733300  0.31648000  1
  H  1832  1  0.46396200  0.85715400  0.31745100  1
  H  1833  1  0.46348100  0.77470900  0.31827200  1
  H  1834  1  0.41685400  0.77503500  0.31790900  1
  H  1883  1  0.46389900  0.31608400  0.85696700  1
  H  1884  1  0.41725700  0.31693600  0.85706800  1
  H  1885  1  0.46355900  0.31515900  0.77452400  1
  H  1886  1  0.41693100  0.31540900  0.77477000  1
  H  1887  1  0.40358600  0.36864300  0.81600300  1
  H  1888  1  0.36862200  0.40360000  0.81602600  1
  H  1889  1  0.33256500  0.33257100  0.81600500  1
  H  1890  1  0.30028600  0.30028600  0.81602200  1
  H  1891  1  0.40437400  0.26355400  0.81605500  1
  H  1892  1  0.36931200  0.22848700  0.81604400  1
  H  1893  1  0.31735100  0.21600000  0.85734100  1
  H  1894  1  0.31750600  0.16937100  0.85767300  1
  H  1895  1  0.31599200  0.21552800  0.77504100  1
  H  1896  1  0.31674800  0.16888100  0.77522800  1
  H  1897  1  0.26422700  0.22925800  0.81606900  1
  H  1898  1  0.22926600  0.26421300  0.81604600  1
  H  1899  1  0.26353400  0.40436700  0.81600500  1
  H  1900  1  0.22847400  0.36929900  0.81604400  1
  H  1901  1  0.21590000  0.31733500  0.77480700  1
  H  1902  1  0.16927100  0.31749000  0.77458200  1
  H  1903  1  0.21561700  0.31598100  0.85710700  1
  H  1904  1  0.16897300  0.31673600  0.85702700  1
  H  1905  1  0.31537600  0.41688400  0.85729200  1
  H  1906  1  0.31510900  0.46351100  0.85759700  1
  H  1907  1  0.31605500  0.46395500  0.77515400  1
  H  1908  1  0.31692000  0.41731100  0.77499600  1
  H  1915  1  0.30533700  0.85531400  0.58519700  1
  H  1916  1  0.30612500  0.85531200  0.63179400  1
  H  1923  1  0.28519400  0.78663900  0.50027700  1
  H  1924  1  0.34300700  0.84501800  0.50221900  1
  H  1925  1  0.34206100  0.84455100  0.54861600  1
  H  1926  1  0.32233600  0.77492600  0.58472400  1
  H  1939  1  0.32715700  0.85538400  0.04748180  1
  H  1940  1  0.32622900  0.85538200  0.00088183  1
  H  1947  1  0.34736500  0.78664100  0.13233800  1
  H  1948  1  0.28968700  0.84515600  0.13058000  1
  H  1949  1  0.29049900  0.84470600  0.08418080  1
  H  1950  1  0.30993100  0.77504300  0.04800680  1
  H  1963  1  0.58523200  0.30558500  0.85530100  1
  H  1964  1  0.63183500  0.30624400  0.85531200  1
  H  1971  1  0.50026100  0.28577400  0.78656500  1
  H  1972  1  0.50238200  0.34361900  0.84490300  1
  H  1973  1  0.54877600  0.34246200  0.84450100  1
  H  1974  1  0.58483400  0.32259500  0.77491200  1
  H  1987  1  0.04757980  0.32676500  0.85538800  1
  H  1988  1  0.00098183  0.32593600  0.85539000  1
  H  1995  1  0.13250200  0.34682200  0.78660200  1
  H  1996  1  0.13056700  0.28904300  0.84501400  1
  H  1997  1  0.08416780  0.29005800  0.84462000  1
  H  1998  1  0.04805780  0.30978500  0.77499400  1
  H  2011  1  0.85530600  0.58525900  0.30526800  1
  H  2012  1  0.85530800  0.63186100  0.30604500  1
  H  2019  1  0.78662100  0.50034700  0.28521000  1
  H  2020  1  0.84503300  0.50228500  0.34298900  1
  H  2021  1  0.84457100  0.54868300  0.34204200  1
  H  2022  1  0.77494300  0.58479700  0.32239700  1
  H  2035  1  0.85539400  0.04754280  0.32707400  1
  H  2036  1  0.85538400  0.00094683  0.32613000  1
  H  2043  1  0.78666200  0.13240400  0.34738400  1
  H  2044  1  0.84513900  0.13065000  0.28966600  1
  H  2045  1  0.84468400  0.08425180  0.29047100  1
  H  2046  1  0.77502300  0.04808280  0.30998400  1
  H  2059  1  0.85541400  0.30518100  0.04756180  1
  H  2060  1  0.85540000  0.30603900  0.00096583  1
  H  2067  1  0.78668400  0.28513400  0.13251200  1
  H  2068  1  0.84518700  0.34281900  0.13056500  1
  H  2069  1  0.84472300  0.34187000  0.08416980  1
  H  2070  1  0.77504500  0.32227300  0.04808280  1
  H  2083  1  0.85527300  0.32724800  0.58529800  1
  H  2084  1  0.85527300  0.32633500  0.63189400  1
  H  2091  1  0.78658600  0.34746400  0.50042800  1
  H  2092  1  0.84507200  0.28975700  0.50222300  1
  H  2093  1  0.84459000  0.29056700  0.54862000  1
  H  2094  1  0.77493400  0.31001500  0.58477900  1
  H  2107  1  0.30556500  0.58535300  0.77705000  1
  H  2108  1  0.30626300  0.63196000  0.77717300  1
  H  2115  1  0.28570200  0.50020500  0.84558900  1
  H  2116  1  0.34357900  0.50244100  0.78728800  1
  H  2117  1  0.34242000  0.54883700  0.78777800  1
  H  2118  1  0.32253600  0.58471100  0.85744600  1
  H  2131  1  0.32678100  0.04749780  0.77718100  1
  H  2132  1  0.32599100  0.00089983  0.77729200  1
  H  2139  1  0.34684200  0.13257800  0.84573600  1
  H  2140  1  0.28904900  0.13050000  0.78734300  1
  H  2141  1  0.29005600  0.08410080  0.78786000  1
  H  2142  1  0.30978500  0.04815480  0.85756900  1
  H  2155  1  0.58529800  0.85527700  0.32722600  1
  H  2156  1  0.63189600  0.85527100  0.32632000  1
  H  2163  1  0.50041900  0.78659600  0.34743300  1
  H  2164  1  0.50222900  0.84507200  0.28971600  1
  H  2165  1  0.54862600  0.84459000  0.29053800  1
  H  2166  1  0.58477500  0.77493600  0.31000500  1
  H  2179  1  0.04755980  0.85541200  0.30516500  1
  H  2180  1  0.00096183  0.85539800  0.30602900  1
  H  2187  1  0.13250200  0.78668200  0.28510100  1
  H  2188  1  0.13057000  0.84518700  0.34278400  1
  H  2189  1  0.08417480  0.84472300  0.34184700  1
  H  2190  1  0.04808080  0.77504500  0.32226000  1
  C  1  1  0.00509100  0.57184900  0.55272300  1
  C  2  1  0.00481400  0.55281600  0.57176300  1
  C  3  1  0.00467000  0.52843500  0.55956000  1
  C  5  1  0.00465400  0.55964400  0.52834100  1
  C  6  1  0.00458000  0.57291600  0.50390100  1
  C  7  1  0.00422600  0.56028600  0.47919900  1
  C  9  1  0.00354700  0.52931300  0.44822400  1
  C  10  1  0.00381000  0.55360300  0.43587300  1
  C  11  1  0.00394900  0.57263700  0.45490700  1
  C  12  1  0.00320600  0.50461100  0.43559400  1
  C  13  1  0.00313900  0.48017100  0.44886600  1
  C  15  1  0.00312600  0.44895200  0.48007300  1
  C  16  1  0.00300900  0.43674900  0.45569000  1
  C  17  1  0.00272000  0.45578900  0.43665900  1
  C  18  1  0.00327000  0.43567200  0.50450600  1
  C  19  1  0.00362100  0.44831200  0.52920900  1
  C  21  1  0.00414800  0.47929700  0.56019600  1
  C  22  1  0.00419900  0.45499700  0.57253700  1
  C  23  1  0.00357000  0.43596900  0.55350900  1
  C  24  1  0.00451300  0.50400000  0.57283600  1
  C  25  1  0.00468800  0.50419900  0.60077000  1
  C  26  1  0.98197900  0.49773000  0.61502900  1
  C  27  1  0.98231400  0.49728600  0.64249300  1
  C  28  1  0.00523600  0.50367500  0.65646900  1
  C  29  1  0.02780300  0.51061800  0.64218800  1
  C  30  1  0.02761600  0.51061200  0.61470900  1
  C  31  1  0.00314700  0.40773800  0.50430100  1
  C  32  1  0.98026000  0.39375200  0.49784600  1
  C  33  1  0.98014300  0.36627100  0.49780300  1
  C  34  1  0.00274700  0.35203900  0.50471800  1
  C  35  1  0.02562600  0.36606200  0.51115400  1
  C  36  1  0.02588700  0.39352800  0.51076800  1
  C  37  1  0.00303000  0.50439300  0.40766800  1
  C  38  1  0.02570000  0.49758800  0.39350900  1
  C  39  1  0.02542900  0.49700900  0.36604700  1
  C  40  1  0.00261500  0.50358300  0.35197500  1
  C  41  1  0.98007800  0.51080700  0.36616400  1
  C  42  1  0.98020300  0.51097100  0.39364300  1
  C  43  1  0.00478300  0.60084200  0.50411400  1
  C  44  1  0.02761300  0.61484500  0.49750400  1
  C  45  1  0.98212500  0.61502500  0.51091200  1
  C  46  1  0.98241200  0.64248900  0.51144500  1
  C  47  1  0.00522500  0.65653900  0.50482600  1
  C  48  1  0.02774800  0.64232500  0.49760800  1
  C  75  1  0.55282400  0.00382600  0.57185700  1
  C  76  1  0.57186100  0.00390000  0.55281800  1
  C  77  1  0.55964800  0.00418600  0.52844100  1
  C  79  1  0.52844600  0.00357000  0.55964800  1
  C  80  1  0.50401000  0.00327400  0.57291600  1
  C  81  1  0.47930300  0.00317100  0.56028400  1
  C  83  1  0.44831200  0.00309800  0.52930900  1
  C  84  1  0.43597100  0.00296400  0.55360600  1
  C  85  1  0.45501100  0.00272200  0.57263300  1
  C  86  1  0.43567000  0.00322100  0.50460900  1
  C  87  1  0.44894600  0.00359800  0.48017300  1
  C  89  1  0.48015900  0.00419300  0.44895300  1
  C  90  1  0.45577200  0.00423100  0.43675500  1
  C  91  1  0.43674300  0.00355900  0.45578700  1
  C  92  1  0.50459300  0.00459500  0.43567400  1
  C  93  1  0.52929500  0.00471300  0.44831200  1
  C  95  1  0.56027400  0.00462300  0.47929900  1
  C  96  1  0.57261900  0.00509500  0.45500500  1
  C  97  1  0.55359100  0.00487100  0.43596700  1
  C  98  1  0.57291200  0.00449900  0.50400400  1
  C  99  1  0.60084000  0.00464100  0.50419900  1
  C  100  1  0.61506000  0.98198200  0.49748300  1
  C  101  1  0.64252400  0.98228300  0.49704600  1
  C  102  1  0.65653500  0.00512100  0.50366100  1
  C  103  1  0.64228600  0.02763500  0.51083600  1
  C  104  1  0.61480400  0.02748100  0.51085800  1
  C  105  1  0.50437300  0.00483200  0.40774200  1
  C  106  1  0.49779900  0.98212900  0.39352000  1
  C  107  1  0.49721900  0.98246000  0.36605600  1
  C  108  1  0.50356900  0.00537200  0.35204500  1
  C  109  1  0.51057500  0.02794300  0.36628800  1
  C  110  1  0.51071100  0.02775800  0.39376600  1
  C  111  1  0.40773600  0.00306300  0.50439300  1
  C  112  1  0.39358900  0.02580700  0.49780800  1
  C  113  1  0.36612500  0.02556200  0.49722700  1
  C  114  1  0.35204100  0.00270000  0.50359900  1
  C  115  1  0.36620800  0.98009000  0.51062200  1
  C  116  1  0.39368800  0.98018600  0.51075400  1
  C  117  1  0.50421100  0.00313000  0.60084400  1
  C  118  1  0.49751400  0.02579300  0.61506600  1
  C  119  1  0.51084600  0.98028300  0.61480400  1
  C  120  1  0.51082800  0.98012700  0.64228600  1
  C  121  1  0.50367100  0.00264400  0.65653900  1
  C  122  1  0.49707900  0.02549100  0.64253000  1
  C  149  1  0.57185500  0.55282000  0.00383000  1
  C  150  1  0.55281400  0.57185700  0.00391800  1
  C  151  1  0.52843700  0.55964400  0.00418800  1
  C  153  1  0.55964600  0.52844100  0.00357000  1
  C  154  1  0.57291400  0.50400600  0.00327000  1
  C  155  1  0.56028000  0.47929900  0.00316300  1
  C  157  1  0.52930700  0.44830800  0.00308300  1
  C  158  1  0.55360300  0.43596700  0.00294200  1
  C  159  1  0.57262900  0.45500700  0.00270400  1
  C  160  1  0.50460700  0.43566600  0.00321500  1
  C  161  1  0.48016900  0.44894200  0.00361100  1
  C  163  1  0.44895200  0.48015300  0.00420100  1
  C  164  1  0.43675300  0.45576800  0.00424800  1
  C  165  1  0.45578300  0.43673700  0.00357800  1
  C  166  1  0.43567200  0.50459000  0.00459400  1
  C  167  1  0.44830800  0.52929100  0.00470600  1
  C  169  1  0.47929500  0.56027100  0.00462300  1
  C  170  1  0.45500100  0.57261500  0.00508900  1
  C  171  1  0.43596500  0.55358700  0.00486400  1
  C  172  1  0.50400000  0.57290800  0.00450600  1
  C  173  1  0.50419700  0.60083400  0.00467300  1
  C  174  1  0.49748900  0.61508000  0.98202700  1
  C  175  1  0.49705300  0.64254300  0.98235700  1
  C  176  1  0.50365700  0.65653100  0.00521300  1
  C  177  1  0.51081700  0.64225500  0.02771600  1
  C  178  1  0.51084400  0.61477300  0.02753100  1
  C  179  1  0.40773800  0.50436700  0.00483000  1
  C  180  1  0.39352000  0.49779100  0.98212700  1
  C  181  1  0.36605600  0.49720400  0.98245800  1
  C  182  1  0.35204300  0.50356500  0.00536600  1
  C  183  1  0.36628500  0.51056300  0.02793900  1
  C  184  1  0.39376200  0.51070700  0.02775500  1
  C  185  1  0.50439100  0.40773200  0.00303200  1
  C  186  1  0.49781200  0.39355900  0.02576200  1
  C  187  1  0.49722700  0.36609500  0.02548700  1
  C  188  1  0.50359500  0.35203600  0.00260900  1
  C  189  1  0.51060800  0.36623000  0.98001200  1
  C  190  1  0.51074100  0.39370900  0.98013700  1
  C  191  1  0.60084000  0.50420700  0.00312600  1
  C  192  1  0.61506600  0.49750600  0.02578800  1
  C  193  1  0.61480100  0.51084800  0.98027900  1
  C  194  1  0.64228200  0.51082100  0.98011900  1
  C  195  1  0.65653700  0.50366900  0.00264000  1
  C  196  1  0.64253000  0.49707700  0.02548500  1
  C  223  1  0.50412100  0.07229300  0.05216500  1
  C  224  1  0.50413100  0.05342100  0.07139200  1
  C  225  1  0.50419900  0.02894400  0.05937700  1
  C  227  1  0.50420700  0.05982300  0.02791700  1
  C  228  1  0.50420100  0.07278300  0.00334400  1
  C  229  1  0.50421700  0.06001200  0.97874200  1
  C  231  1  0.50423800  0.02878700  0.94809400  1
  C  232  1  0.50419600  0.05294400  0.93548400  1
  C  233  1  0.50419400  0.07216800  0.95435300  1
  C  234  1  0.50422700  0.00395300  0.93578500  1
  C  235  1  0.50422500  0.97962600  0.94920200  1
  C  237  1  0.50423500  0.94874800  0.98066200  1
  C  238  1  0.50415600  0.93627800  0.95641500  1
  C  239  1  0.50416400  0.95514900  0.93718700  1
  C  240  1  0.50422700  0.93578800  0.00523300  1
  C  241  1  0.50422900  0.94855900  0.02983500  1
  C  243  1  0.50422500  0.97978200  0.06048400  1
  C  244  1  0.50417600  0.95562300  0.07309300  1
  C  245  1  0.50419400  0.93640100  0.05422400  1
  C  246  1  0.50420300  0.00461700  0.07279400  1
  C  247  1  0.50407300  0.00508900  0.10063500  1
  C  248  1  0.48030000  0.00574300  0.11451700  1
  C  249  1  0.48019800  0.00613900  0.14198400  1
  C  250  1  0.50377000  0.00585500  0.15645800  1
  C  251  1  0.52750000  0.00514900  0.14226900  1
  C  252  1  0.52769300  0.00479900  0.11479500  1
  C  253  1  0.50410400  0.90794400  0.00527900  1
  C  254  1  0.48033300  0.89405200  0.00582500  1
  C  255  1  0.48023900  0.86658400  0.00609000  1
  C  256  1  0.50381700  0.85212100  0.00577600  1
  C  257  1  0.52754300  0.86631900  0.00513700  1
  C  258  1  0.52772900  0.89379500  0.00492700  1
  C  259  1  0.50411600  0.00347300  0.90794600  1
  C  260  1  0.52774800  0.00369300  0.89380200  1
  C  261  1  0.52757200  0.00328800  0.86633100  1
  C  262  1  0.50385200  0.00257200  0.85212800  1
  C  263  1  0.48026800  0.00236100  0.86658400  1
  C  264  1  0.48035000  0.00282900  0.89404800  1
  C  265  1  0.50406700  0.10062700  0.00329200  1
  C  266  1  0.52768400  0.11479000  0.00366200  1
  C  267  1  0.48029000  0.11450900  0.00267500  1
  C  268  1  0.48018600  0.14197600  0.00234700  1
  C  269  1  0.50375700  0.15645200  0.00267100  1
  C  270  1  0.52748700  0.14226400  0.00338700  1
  C  297  1  0.05216500  0.50412100  0.07222800  1
  C  298  1  0.07139200  0.50413100  0.05335600  1
  C  299  1  0.05937700  0.50419700  0.02887900  1
  C  301  1  0.02791700  0.50420700  0.05975800  1
  C  302  1  0.00334400  0.50420100  0.07271900  1
  C  303  1  0.97874400  0.50421700  0.05994800  1
  C  305  1  0.94809400  0.50423800  0.02872400  1
  C  306  1  0.93548400  0.50419600  0.05288200  1
  C  307  1  0.95435300  0.50419600  0.07210500  1
  C  308  1  0.93578500  0.50423100  0.00389000  1
  C  309  1  0.94920000  0.50422700  0.97956300  1
  C  311  1  0.98066000  0.50423100  0.94868400  1
  C  312  1  0.95641100  0.50415800  0.93621400  1
  C  313  1  0.93718500  0.50416600  0.95508600  1
  C  314  1  0.00523100  0.50422100  0.93572200  1
  C  315  1  0.02983300  0.50422700  0.94849200  1
  C  317  1  0.06048300  0.50422700  0.97971800  1
  C  318  1  0.07309100  0.50417600  0.95555800  1
  C  319  1  0.05422200  0.50419200  0.93633500  1
  C  320  1  0.07279300  0.50420100  0.00455200  1
  C  321  1  0.10063400  0.50407500  0.00502400  1
  C  322  1  0.11451700  0.48030000  0.00568300  1
  C  323  1  0.14198400  0.48020000  0.00610100  1
  C  324  1  0.15645600  0.50377200  0.00580800  1
  C  325  1  0.14226700  0.52750000  0.00508200  1
  C  326  1  0.11479300  0.52769500  0.00473700  1
  C  327  1  0.00527600  0.50410000  0.90788000  1
  C  328  1  0.00581500  0.48032900  0.89398600  1
  C  329  1  0.00607300  0.48023700  0.86651800  1
  C  330  1  0.00577400  0.50381500  0.85205400  1
  C  331  1  0.00514200  0.52754100  0.86625500  1
  C  332  1  0.00493000  0.52772700  0.89372800  1
  C  333  1  0.90794600  0.50411700  0.00341200  1
  C  334  1  0.89380000  0.52775000  0.00363900  1
  C  335  1  0.86632900  0.52757200  0.00323700  1
  C  336  1  0.85212700  0.50385200  0.00252700  1
  C  337  1  0.86658200  0.48026800  0.00231600  1
  C  338  1  0.89404800  0.48035200  0.00277500  1
  C  339  1  0.00329300  0.50406700  0.10056200  1
  C  340  1  0.00366600  0.52768600  0.11472400  1
  C  341  1  0.00267300  0.48029200  0.11444400  1
  C  342  1  0.00234500  0.48018600  0.14191100  1
  C  343  1  0.00267500  0.50375700  0.15638500  1
  C  344  1  0.00340900  0.52748900  0.14219900  1
  C  371  1  0.07185700  0.05282000  0.50386800  1
  C  372  1  0.05280300  0.07187000  0.50388100  1
  C  373  1  0.02844200  0.05962400  0.50386800  1
  C  375  1  0.05961600  0.02845600  0.50387900  1
  C  376  1  0.07279500  0.00400200  0.50388100  1
  C  377  1  0.06024400  0.97928600  0.50388300  1
  C  379  1  0.02930800  0.94834400  0.50390100  1
  C  380  1  0.05358500  0.93596400  0.50390500  1
  C  381  1  0.07262800  0.95501000  0.50390300  1
  C  382  1  0.00459500  0.93579000  0.50390500  1
  C  383  1  0.98013900  0.94896400  0.50389700  1
  C  385  1  0.94896600  0.98013100  0.50390700  1
  C  386  1  0.93672300  0.95576700  0.50390700  1
  C  387  1  0.95577700  0.93671700  0.50391800  1
  C  388  1  0.93578600  0.00458400  0.50390500  1
  C  389  1  0.94833600  0.02930000  0.50388900  1
  C  391  1  0.97927100  0.06024200  0.50388300  1
  C  392  1  0.95499300  0.07262200  0.50388100  1
  C  393  1  0.93595000  0.05357500  0.50389500  1
  C  394  1  0.00398500  0.07279900  0.50387600  1
  C  395  1  0.00415500  0.10064300  0.50398900  1
  C  396  1  0.00451300  0.11479200  0.48036000  1
  C  397  1  0.00419700  0.14226700  0.48054000  1
  C  398  1  0.00339700  0.15646500  0.50426200  1
  C  399  1  0.00311600  0.14200500  0.52784000  1
  C  400  1  0.00350000  0.11453900  0.52775400  1
  C  401  1  0.90794200  0.00440200  0.50383500  1
  C  402  1  0.89400500  0.00496900  0.48009100  1
  C  403  1  0.86653900  0.00527900  0.48005200  1
  C  404  1  0.85212100  0.00501300  0.50365700  1
  C  405  1  0.86636200  0.00431000  0.52735600  1
  C  406  1  0.89383700  0.00406900  0.52748900  1
  C  407  1  0.00441800  0.90794600  0.50403400  1
  C  408  1  0.00498400  0.89406400  0.52780900  1
  C  409  1  0.00529400  0.86659800  0.52791200  1
  C  410  1  0.00502800  0.85212700  0.50434000  1
  C  411  1  0.00432300  0.86631100  0.48060800  1
  C  412  1  0.00408000  0.89378700  0.48041300  1
  C  413  1  0.10063900  0.00417800  0.50379900  1
  C  414  1  0.11475900  0.00453200  0.52744400  1
  C  415  1  0.11456500  0.00353000  0.48005000  1
  C  416  1  0.14203100  0.00315300  0.47999700  1
  C  417  1  0.15646200  0.00343800  0.50359500  1
  C  418  1  0.14223400  0.00422100  0.52729900  1
  C  445  1  0.00231600  0.50282200  0.32416200  1
  C  446  1  0.00694400  0.47937500  0.31012000  1
  C  447  1  0.00657900  0.47976300  0.28246500  1
  C  448  1  0.00153000  0.50289600  0.26830900  1
  C  449  1  0.99704500  0.52605300  0.28258200  1
  C  450  1  0.99728100  0.52598600  0.31003200  1
  C  453  1  0.00111200  0.50287500  0.24040800  1
  C  454  1  0.98467300  0.48590800  0.22587500  1
  C  455  1  0.98544100  0.48649200  0.19822300  1
  C  456  1  0.00213300  0.50356900  0.18435600  1
  C  457  1  0.01814900  0.52046900  0.19916700  1
  C  458  1  0.01763400  0.52015300  0.22660800  1
  C  469  1  0.00563000  0.50292200  0.68427800  1
  C  470  1  0.00098000  0.47948600  0.69833400  1
  C  471  1  0.00143400  0.47987000  0.72598700  1
  C  472  1  0.00659400  0.50299000  0.74012500  1
  C  473  1  0.01110000  0.52613700  0.72583900  1
  C  474  1  0.01078100  0.52607000  0.69838800  1
  C  477  1  0.00709600  0.50296500  0.76802600  1
  C  478  1  0.02353700  0.48595300  0.78250700  1
  C  479  1  0.02285000  0.48652700  0.81016000  1
  C  480  1  0.00623800  0.50364000  0.82408100  1
  C  481  1  0.99022100  0.52058500  0.80932300  1
  C  482  1  0.99065600  0.52027600  0.78188100  1
  C  493  1  0.32423000  0.00243500  0.50282800  1
  C  494  1  0.31021300  0.00710200  0.47937700  1
  C  495  1  0.28255600  0.00680500  0.47975300  1
  C  496  1  0.26838100  0.00179300  0.50288300  1
  C  497  1  0.28263200  0.99726300  0.52604300  1
  C  498  1  0.31008500  0.99742500  0.52598600  1
  C  501  1  0.24047900  0.00147700  0.50284900  1
  C  502  1  0.22589400  0.98508600  0.48587900  1
  C  503  1  0.19824700  0.98598200  0.48642100  1
  C  504  1  0.18443100  0.00275900  0.50345800  1
  C  505  1  0.19929000  0.01871100  0.52037800  1
  C  506  1  0.22672900  0.01806900  0.52010100  1
  C  517  1  0.68434800  0.00548000  0.50290000  1
  C  518  1  0.69839400  0.00087800  0.47944900  1
  C  519  1  0.72604700  0.00126700  0.47983300  1
  C  520  1  0.74020100  0.00631800  0.50296600  1
  C  521  1  0.72592600  0.01078800  0.52612700  1
  C  522  1  0.69847400  0.01052900  0.52606300  1
  C  525  1  0.76810200  0.00672900  0.50293700  1
  C  526  1  0.78263400  0.02314300  0.48594300  1
  C  527  1  0.81028500  0.02233000  0.48648000  1
  C  528  1  0.82415100  0.00561500  0.50353400  1
  C  529  1  0.80934600  0.98964100  0.52047700  1
  C  530  1  0.78190600  0.99019900  0.52020400  1
  C  541  1  0.50283400  0.32422600  0.00230800  1
  C  542  1  0.47939400  0.31019000  0.00698000  1
  C  543  1  0.47977700  0.28253500  0.00661200  1
  C  544  1  0.50290200  0.26837800  0.00152800  1
  C  545  1  0.52605300  0.28264600  0.99700400  1
  C  546  1  0.52598800  0.31009800  0.99723400  1
  C  549  1  0.50287700  0.24047700  0.00111200  1
  C  550  1  0.48589900  0.22594500  0.98468400  1
  C  551  1  0.48648000  0.19829300  0.98545100  1
  C  552  1  0.50356700  0.18442400  0.00213300  1
  C  553  1  0.52047900  0.19923400  0.01813800  1
  C  554  1  0.52016300  0.22667400  0.01762300  1
  C  565  1  0.50290600  0.68434400  0.00560600  1
  C  566  1  0.47946500  0.69840600  0.00100300  1
  C  567  1  0.47985700  0.72605900  0.00145800  1
  C  568  1  0.50298600  0.74019300  0.00658100  1
  C  569  1  0.52613700  0.72590300  0.01104400  1
  C  570  1  0.52606600  0.69845300  0.01071700  1
  C  573  1  0.50296300  0.76809400  0.00708900  1
  C  574  1  0.48596300  0.78257500  0.02354400  1
  C  575  1  0.48653800  0.81022600  0.02285900  1
  C  576  1  0.50364000  0.82414900  0.00623700  1
  C  577  1  0.52057500  0.80939100  0.99020700  1
  C  578  1  0.52026500  0.78194900  0.99063800  1
  C  589  1  0.50292000  0.00228300  0.68435200  1
  C  590  1  0.47948000  0.00691000  0.69841000  1
  C  591  1  0.47987400  0.00650500  0.72606300  1
  C  592  1  0.50300500  0.00141100  0.74020500  1
  C  593  1  0.52615400  0.99691800  0.72591900  1
  C  594  1  0.52608000  0.99719500  0.69846600  1
  C  597  1  0.50299200  0.00097800  0.76810800  1
  C  598  1  0.48598800  0.98457700  0.78264100  1
  C  599  1  0.48657000  0.98534600  0.81029300  1
  C  600  1  0.50368200  0.00200200  0.82415900  1
  C  601  1  0.52062000  0.01798100  0.80934800  1
  C  602  1  0.52030400  0.01746400  0.78190800  1
  C  613  1  0.50281000  0.00573500  0.32423400  1
  C  614  1  0.47937700  0.00107300  0.31018200  1
  C  615  1  0.47976100  0.00152200  0.28252900  1
  C  616  1  0.50288100  0.00668000  0.26838900  1
  C  617  1  0.52602500  0.01119100  0.28267100  1
  C  618  1  0.52595900  0.01088000  0.31012200  1
  C  621  1  0.50285900  0.00717700  0.24048600  1
  C  622  1  0.48586500  0.02362600  0.22599700  1
  C  623  1  0.48646000  0.02294600  0.19834400  1
  C  624  1  0.50358100  0.00633300  0.18443100  1
  C  625  1  0.52050300  0.99030100  0.19920300  1
  C  626  1  0.52017500  0.99073000  0.22664300  1
  C  637  1  0.00244100  0.32422800  0.50540500  1
  C  638  1  0.00708100  0.31013900  0.52881900  1
  C  639  1  0.00676100  0.28248600  0.52836300  1
  C  640  1  0.00175000  0.26838100  0.50519000  1
  C  641  1  0.99724400  0.28270300  0.48206700  1
  C  642  1  0.99742700  0.31015700  0.48220400  1
  C  645  1  0.00141700  0.24047900  0.50514900  1
  C  646  1  0.98501600  0.22586100  0.52208100  1
  C  647  1  0.98591300  0.19821500  0.52148600  1
  C  648  1  0.00270400  0.18443300  0.50443500  1
  C  649  1  0.01866100  0.19932500  0.48754900  1
  C  650  1  0.01801700  0.22676400  0.48787900  1
  C  661  1  0.00553400  0.68435400  0.50552200  1
  C  662  1  0.00091000  0.69845300  0.52893600  1
  C  663  1  0.00127400  0.72610600  0.52848500  1
  C  664  1  0.00632200  0.74020700  0.50531900  1
  C  665  1  0.01080500  0.72588200  0.48219400  1
  C  666  1  0.01056900  0.69843100  0.48232700  1
  C  669  1  0.00673000  0.76811000  0.50528000  1
  C  670  1  0.02315300  0.78268200  0.52222900  1
  C  671  1  0.02234500  0.81033200  0.52161800  1
  C  672  1  0.00562800  0.82415700  0.50453100  1
  C  673  1  0.98964700  0.80930900  0.48763100  1
  C  674  1  0.99019900  0.78186900  0.48797800  1
  C  685  1  0.32423200  0.50280800  0.00572600  1
  C  686  1  0.31018000  0.47937500  0.00106600  1
  C  687  1  0.28252500  0.47976100  0.00151000  1
  C  688  1  0.26838700  0.50288300  0.00666400  1
  C  689  1  0.28267100  0.52602700  0.01117300  1
  C  690  1  0.31012200  0.52595900  0.01086600  1
  C  693  1  0.24048600  0.50286500  0.00715500  1
  C  694  1  0.22599200  0.48587300  0.02360300  1
  C  695  1  0.19833600  0.48646800  0.02291500  1
  C  696  1  0.18443000  0.50358500  0.00629500  1
  C  697  1  0.19920500  0.52050500  0.99026400  1
  C  698  1  0.22664700  0.52017500  0.99070300  1
  C  709  1  0.68435000  0.50291800  0.00227500  1
  C  710  1  0.69840800  0.47947800  0.00690200  1
  C  711  1  0.72606300  0.47987400  0.00649400  1
  C  712  1  0.74020300  0.50300500  0.00139500  1
  C  713  1  0.72591700  0.52615200  0.99690400  1
  C  714  1  0.69846400  0.52608000  0.99718500  1
  C  717  1  0.76810600  0.50299200  0.00095800  1
  C  718  1  0.78263600  0.48598600  0.98455400  1
  C  719  1  0.81028700  0.48656800  0.98531400  1
  C  720  1  0.82415700  0.50368200  0.00196700  1
  C  721  1  0.80935000  0.52061800  0.01794900  1
  C  722  1  0.78191000  0.52030400  0.01743900  1
  C  733  1  0.16115800  0.72791600  0.70879000  1
  C  734  1  0.16088100  0.70888300  0.72783000  1
  C  735  1  0.16073700  0.68450200  0.71562700  1
  C  737  1  0.16072100  0.71571100  0.68440800  1
  C  738  1  0.16064700  0.72898300  0.65996800  1
  C  739  1  0.16029300  0.71635300  0.63526600  1
  C  741  1  0.15961400  0.68538000  0.60429100  1
  C  742  1  0.15987700  0.70967000  0.59194000  1
  C  743  1  0.16001600  0.72870400  0.61097400  1
  C  744  1  0.15927300  0.66067800  0.59166100  1
  C  745  1  0.15920600  0.63623800  0.60493300  1
  C  747  1  0.15919300  0.60501900  0.63614000  1
  C  748  1  0.15907600  0.59281600  0.61175700  1
  C  749  1  0.15878700  0.61185600  0.59272600  1
  C  750  1  0.15933700  0.59173900  0.66057300  1
  C  751  1  0.15968800  0.60437900  0.68527600  1
  C  753  1  0.16021500  0.63536400  0.71626300  1
  C  754  1  0.16026600  0.61106400  0.72860400  1
  C  755  1  0.15963700  0.59203600  0.70957600  1
  C  756  1  0.16058000  0.66006700  0.72890300  1
  C  757  1  0.16075500  0.66026600  0.75683700  1
  C  758  1  0.13804600  0.65379700  0.77109600  1
  C  759  1  0.13838100  0.65335300  0.79856000  1
  C  760  1  0.16130300  0.65974200  0.81253600  1
  C  761  1  0.18387000  0.66666667  0.79825500  1
  C  762  1  0.18368300  0.66666667  0.77077600  1
  C  763  1  0.15921400  0.56380500  0.66036800  1
  C  764  1  0.13632700  0.54981900  0.65391300  1
  C  765  1  0.13621000  0.52233800  0.65387000  1
  C  766  1  0.15881400  0.50810600  0.66078500  1
  C  767  1  0.18169300  0.52212900  0.66722100  1
  C  768  1  0.18195400  0.54959500  0.66683500  1
  C  769  1  0.15909700  0.66046000  0.56373500  1
  C  770  1  0.18176700  0.65365500  0.54957600  1
  C  771  1  0.18149600  0.65307600  0.52211400  1
  C  772  1  0.15868200  0.65965000  0.50804200  1
  C  773  1  0.13614500  0.66687400  0.52223100  1
  C  774  1  0.13627000  0.66703800  0.54971000  1
  C  775  1  0.16085000  0.75690900  0.66018100  1
  C  776  1  0.18368000  0.77091200  0.65357100  1
  C  777  1  0.13819200  0.77109200  0.66697900  1
  C  778  1  0.13847900  0.79855600  0.66751200  1
  C  779  1  0.16129200  0.81260600  0.66089300  1
  C  780  1  0.18381500  0.79839200  0.65367500  1
  C  807  1  0.70889100  0.15989300  0.72792400  1
  C  808  1  0.72792800  0.15996700  0.70888500  1
  C  809  1  0.71571500  0.16025300  0.68450800  1
  C  811  1  0.68451300  0.15963700  0.71571500  1
  C  812  1  0.66007700  0.15934100  0.72898300  1
  C  813  1  0.63537000  0.15923800  0.71635100  1
  C  815  1  0.60437900  0.15916500  0.68537600  1
  C  816  1  0.59203800  0.15903100  0.70967300  1
  C  817  1  0.61107800  0.15878900  0.72870000  1
  C  818  1  0.59173700  0.15928800  0.66067600  1
  C  819  1  0.60501300  0.15966500  0.63624000  1
  C  821  1  0.63622600  0.16026000  0.60502000  1
  C  822  1  0.61183900  0.16029800  0.59282200  1
  C  823  1  0.59281000  0.15962600  0.61185400  1
  C  824  1  0.66066000  0.16066200  0.59174100  1
  C  825  1  0.68536200  0.16078000  0.60437900  1
  C  827  1  0.71634100  0.16069000  0.63536600  1
  C  828  1  0.72868600  0.16116200  0.61107200  1
  C  829  1  0.70965800  0.16093800  0.59203400  1
  C  830  1  0.72897900  0.16056600  0.66007100  1
  C  831  1  0.75690700  0.16070800  0.66026600  1
  C  832  1  0.77112700  0.13804900  0.65355000  1
  C  833  1  0.79859100  0.13835000  0.65311300  1
  C  834  1  0.81260200  0.16118800  0.65972800  1
  C  835  1  0.79835300  0.18370200  0.66690300  1
  C  836  1  0.77087100  0.18354800  0.66692500  1
  C  837  1  0.66044000  0.16089900  0.56380900  1
  C  838  1  0.65386600  0.13819600  0.54958700  1
  C  839  1  0.65328600  0.13852700  0.52212300  1
  C  840  1  0.65963600  0.16143900  0.50811200  1
  C  841  1  0.66666667  0.18401000  0.52235500  1
  C  842  1  0.66677800  0.18382500  0.54983300  1
  C  843  1  0.56380300  0.15913000  0.66046000  1
  C  844  1  0.54965600  0.18187400  0.65387500  1
  C  845  1  0.52219200  0.18162900  0.65329400  1
  C  846  1  0.50810800  0.15876700  0.65966600  1
  C  847  1  0.52227500  0.13615700  0.66666667  1
  C  848  1  0.54975500  0.13625300  0.66682100  1
  C  849  1  0.66027800  0.15919700  0.75691100  1
  C  850  1  0.65358100  0.18186000  0.77113300  1
  C  851  1  0.66691300  0.13635000  0.77087100  1
  C  852  1  0.66689500  0.13619400  0.79835300  1
  C  853  1  0.65973800  0.15871100  0.81260600  1
  C  854  1  0.65314600  0.18155800  0.79859700  1
  C  881  1  0.72792200  0.70888700  0.15989700  1
  C  882  1  0.70888100  0.72792400  0.15998500  1
  C  883  1  0.68450400  0.71571100  0.16025500  1
  C  885  1  0.71571300  0.68450800  0.15963700  1
  C  886  1  0.72898100  0.66007300  0.15933700  1
  C  887  1  0.71634700  0.63536600  0.15923000  1
  C  889  1  0.68537400  0.60437500  0.15915000  1
  C  890  1  0.70967000  0.59203400  0.15900900  1
  C  891  1  0.72869600  0.61107400  0.15877100  1
  C  892  1  0.66067400  0.59173300  0.15928200  1
  C  893  1  0.63623600  0.60500900  0.15967800  1
  C  895  1  0.60501900  0.63622000  0.16026800  1
  C  896  1  0.59282000  0.61183500  0.16031500  1
  C  897  1  0.61185000  0.59280400  0.15964500  1
  C  898  1  0.59173900  0.66065700  0.16066100  1
  C  899  1  0.60437500  0.68535800  0.16077300  1
  C  901  1  0.63536200  0.71633800  0.16069000  1
  C  902  1  0.61106800  0.72868200  0.16115600  1
  C  903  1  0.59203200  0.70965400  0.16093100  1
  C  904  1  0.66006700  0.72897500  0.16057300  1
  C  905  1  0.66026400  0.75690100  0.16074000  1
  C  906  1  0.65355600  0.77114700  0.13809400  1
  C  907  1  0.65312000  0.79861000  0.13842400  1
  C  908  1  0.65972400  0.81259800  0.16128000  1
  C  909  1  0.66688400  0.79832200  0.18378300  1
  C  910  1  0.66691100  0.77084000  0.18359800  1
  C  911  1  0.56380500  0.66043400  0.16089700  1
  C  912  1  0.54958700  0.65385800  0.13819400  1
  C  913  1  0.52212300  0.65327100  0.13852500  1
  C  914  1  0.50811000  0.65963200  0.16143300  1
  C  915  1  0.52235200  0.66666667  0.18400600  1
  C  916  1  0.54982900  0.66677400  0.18382200  1
  C  917  1  0.66045800  0.56379900  0.15909900  1
  C  918  1  0.65387900  0.54962600  0.18182900  1
  C  919  1  0.65329400  0.52216200  0.18155400  1
  C  920  1  0.65966200  0.50810300  0.15867600  1
  C  921  1  0.66666667  0.52229700  0.13607900  1
  C  922  1  0.66680800  0.54977600  0.13620400  1
  C  923  1  0.75690700  0.66027400  0.15919300  1
  C  924  1  0.77113300  0.65357300  0.18185500  1
  C  925  1  0.77086800  0.66691500  0.13634600  1
  C  926  1  0.79834900  0.66688800  0.13618600  1
  C  927  1  0.81260400  0.65973600  0.15870700  1
  C  928  1  0.79859700  0.65314400  0.18155200  1
  C  955  1  0.66018800  0.22836000  0.20823200  1
  C  956  1  0.66019800  0.20948800  0.22745900  1
  C  957  1  0.66026600  0.18501100  0.21544400  1
  C  959  1  0.66027400  0.21589000  0.18398400  1
  C  960  1  0.66026800  0.22885000  0.15941100  1
  C  961  1  0.66028400  0.21607900  0.13480900  1
  C  963  1  0.66030500  0.18485400  0.10416100  1
  C  964  1  0.66026300  0.20901100  0.09155140  1
  C  965  1  0.66026100  0.22823500  0.11042000  1
  C  966  1  0.66029400  0.16002000  0.09185240  1
  C  967  1  0.66029200  0.13569300  0.10526900  1
  C  969  1  0.66030200  0.10481500  0.13672900  1
  C  970  1  0.66022300  0.09234540  0.11248200  1
  C  971  1  0.66023100  0.11121600  0.09325440  1
  C  972  1  0.66029400  0.09185540  0.16130000  1
  C  973  1  0.66029600  0.10462600  0.18590200  1
  C  975  1  0.66029200  0.13584900  0.21655100  1
  C  976  1  0.66024300  0.11169000  0.22916000  1
  C  977  1  0.66026100  0.09246840  0.21029100  1
  C  978  1  0.66027000  0.16068400  0.22886100  1
  C  979  1  0.66014000  0.16115600  0.25670200  1
  C  980  1  0.63636700  0.16181000  0.27058400  1
  C  981  1  0.63626500  0.16220600  0.29805100  1
  C  982  1  0.65983700  0.16192200  0.31252500  1
  C  983  1  0.68356700  0.16121600  0.29833600  1
  C  984  1  0.68376000  0.16086600  0.27086200  1
  C  985  1  0.66017100  0.06401140  0.16134600  1
  C  986  1  0.63640000  0.05011940  0.16189200  1
  C  987  1  0.63630600  0.02265140  0.16215700  1
  C  988  1  0.65988400  0.00818841  0.16184300  1
  C  989  1  0.68361000  0.02238640  0.16120400  1
  C  990  1  0.68379600  0.04986240  0.16099400  1
  C  991  1  0.66018300  0.15954000  0.06401340  1
  C  992  1  0.68381500  0.15976000  0.04986940  1
  C  993  1  0.68363900  0.15935500  0.02239840  1
  C  994  1  0.65991900  0.15863900  0.00819541  1
  C  995  1  0.63633500  0.15842800  0.02265140  1
  C  996  1  0.63641700  0.15889600  0.05011540  1
  C  997  1  0.66013400  0.25669400  0.15935900  1
  C  998  1  0.68375100  0.27085700  0.15972900  1
  C  999  1  0.63635700  0.27057600  0.15874200  1
  C  1000  1  0.63625300  0.29804300  0.15841400  1
  C  1001  1  0.65982400  0.31251900  0.15873800  1
  C  1002  1  0.68355400  0.29833100  0.15945400  1
  C  1029  1  0.20823200  0.66018800  0.22829500  1
  C  1030  1  0.22745900  0.66019800  0.20942300  1
  C  1031  1  0.21544400  0.66026400  0.18494600  1
  C  1033  1  0.18398400  0.66027400  0.21582500  1
  C  1034  1  0.15941100  0.66026800  0.22878600  1
  C  1035  1  0.13481100  0.66028400  0.21601500  1
  C  1037  1  0.10416100  0.66030500  0.18479100  1
  C  1038  1  0.09155140  0.66026300  0.20894900  1
  C  1039  1  0.11042000  0.66026300  0.22817200  1
  C  1040  1  0.09185240  0.66029800  0.15995700  1
  C  1041  1  0.10526700  0.66029400  0.13563000  1
  C  1043  1  0.13672700  0.66029800  0.10475100  1
  C  1044  1  0.11247800  0.66022500  0.09228140  1
  C  1045  1  0.09325240  0.66023300  0.11115300  1
  C  1046  1  0.16129800  0.66028800  0.09178940  1
  C  1047  1  0.18590000  0.66029400  0.10455900  1
  C  1049  1  0.21655000  0.66029400  0.13578500  1
  C  1050  1  0.22915800  0.66024300  0.11162500  1
  C  1051  1  0.21028900  0.66025900  0.09240240  1
  C  1052  1  0.22886000  0.66026800  0.16061900  1
  C  1053  1  0.25670100  0.66014200  0.16109100  1
  C  1054  1  0.27058400  0.63636700  0.16175000  1
  C  1055  1  0.29805100  0.63626700  0.16216800  1
  C  1056  1  0.31252300  0.65983900  0.16187500  1
  C  1057  1  0.29833400  0.68356700  0.16114900  1
  C  1058  1  0.27086000  0.68376200  0.16080400  1
  C  1059  1  0.16134300  0.66016700  0.06394740  1
  C  1060  1  0.16188200  0.63639600  0.05005340  1
  C  1061  1  0.16214000  0.63630400  0.02258540  1
  C  1062  1  0.16184100  0.65988200  0.00812141  1
  C  1063  1  0.16120900  0.68360800  0.02232240  1
  C  1064  1  0.16099700  0.68379400  0.04979540  1
  C  1065  1  0.06401340  0.66018400  0.15947900  1
  C  1066  1  0.04986740  0.68381700  0.15970600  1
  C  1067  1  0.02239640  0.68363900  0.15930400  1
  C  1068  1  0.00819441  0.65991900  0.15859400  1
  C  1069  1  0.02264940  0.63633500  0.15838300  1
  C  1070  1  0.05011540  0.63641900  0.15884200  1
  C  1071  1  0.15936000  0.66013400  0.25662900  1
  C  1072  1  0.15973300  0.68375300  0.27079100  1
  C  1073  1  0.15874000  0.63635900  0.27051100  1
  C  1074  1  0.15841200  0.63625300  0.29797800  1
  C  1075  1  0.15874200  0.65982400  0.31245200  1
  C  1076  1  0.15947600  0.68355600  0.29826600  1
  C  1103  1  0.22792400  0.20888700  0.65993500  1
  C  1104  1  0.20887000  0.22793700  0.65994800  1
  C  1105  1  0.18450900  0.21569100  0.65993500  1
  C  1107  1  0.21568300  0.18452300  0.65994600  1
  C  1108  1  0.22886200  0.16006900  0.65994800  1
  C  1109  1  0.21631100  0.13535300  0.65995000  1
  C  1111  1  0.18537500  0.10441100  0.65996800  1
  C  1112  1  0.20965200  0.09203140  0.65997200  1
  C  1113  1  0.22869500  0.11107700  0.65997000  1
  C  1114  1  0.16066200  0.09185740  0.65997200  1
  C  1115  1  0.13620600  0.10503100  0.65996400  1
  C  1117  1  0.10503300  0.13619800  0.65997400  1
  C  1118  1  0.09279040  0.11183400  0.65997400  1
  C  1119  1  0.11184400  0.09278440  0.65998500  1
  C  1120  1  0.09185340  0.16065100  0.65997200  1
  C  1121  1  0.10440300  0.18536700  0.65995600  1
  C  1123  1  0.13533800  0.21630900  0.65995000  1
  C  1124  1  0.11106000  0.22868900  0.65994800  1
  C  1125  1  0.09201740  0.20964200  0.65996200  1
  C  1126  1  0.16005200  0.22886600  0.65994300  1
  C  1127  1  0.16022200  0.25671000  0.66005600  1
  C  1128  1  0.16058000  0.27085900  0.63642700  1
  C  1129  1  0.16026400  0.29833400  0.63660700  1
  C  1130  1  0.15946400  0.31253200  0.66032900  1
  C  1131  1  0.15918300  0.29807200  0.68390700  1
  C  1132  1  0.15956700  0.27060600  0.68382100  1
  C  1133  1  0.06400940  0.16046900  0.65990200  1
  C  1134  1  0.05007240  0.16103600  0.63615800  1
  C  1135  1  0.02260640  0.16134600  0.63611900  1
  C  1136  1  0.00818841  0.16108000  0.65972400  1
  C  1137  1  0.02242940  0.16037700  0.68342300  1
  C  1138  1  0.04990440  0.16013600  0.68355600  1
  C  1139  1  0.16048500  0.06401340  0.66010100  1
  C  1140  1  0.16105100  0.05013140  0.68387600  1
  C  1141  1  0.16136100  0.02266540  0.68397900  1
  C  1142  1  0.16109500  0.00819441  0.66040700  1
  C  1143  1  0.16039000  0.02237840  0.63667500  1
  C  1144  1  0.16014700  0.04985440  0.63648000  1
  C  1145  1  0.25670600  0.16024500  0.65986600  1
  C  1146  1  0.27082600  0.16059900  0.68351100  1
  C  1147  1  0.27063200  0.15959700  0.63611700  1
  C  1148  1  0.29809800  0.15922000  0.63606400  1
  C  1149  1  0.31252900  0.15950500  0.65966200  1
  C  1150  1  0.29830100  0.16028800  0.68336600  1
  C  1177  1  0.15838300  0.65888900  0.48022900  1
  C  1178  1  0.16301100  0.63544200  0.46618700  1
  C  1179  1  0.16264600  0.63583000  0.43853200  1
  C  1180  1  0.15759700  0.65896300  0.42437600  1
  C  1181  1  0.15311200  0.68212000  0.43864900  1
  C  1182  1  0.15334800  0.68205300  0.46609900  1
  C  1185  1  0.15717900  0.65894200  0.39647500  1
  C  1186  1  0.14074000  0.64197500  0.38194200  1
  C  1187  1  0.14150800  0.64255900  0.35429000  1
  C  1188  1  0.15820000  0.65963600  0.34042300  1
  C  1189  1  0.17421600  0.67653600  0.35523400  1
  C  1190  1  0.17370100  0.67622000  0.38267500  1
  C  1201  1  0.16169700  0.65898900  0.84034500  1
  C  1202  1  0.15704700  0.63555300  0.85440100  1
  C  1203  1  0.15750100  0.63593700  0.88205400  1
  C  1204  1  0.16266100  0.65905700  0.89619200  1
  C  1205  1  0.16716700  0.68220400  0.88190600  1
  C  1206  1  0.16684800  0.68213700  0.85445500  1
  C  1209  1  0.16316300  0.65903200  0.92409300  1
  C  1210  1  0.17960400  0.64202000  0.93857400  1
  C  1211  1  0.17891700  0.64259400  0.96622700  1
  C  1212  1  0.16230500  0.65970700  0.98014800  1
  C  1213  1  0.14628800  0.67665200  0.96539000  1
  C  1214  1  0.14672300  0.67634300  0.93794800  1
  C  1225  1  0.48029700  0.15850200  0.65889500  1
  C  1226  1  0.46628000  0.16316900  0.63544400  1
  C  1227  1  0.43862300  0.16287200  0.63582000  1
  C  1228  1  0.42444800  0.15786000  0.65895000  1
  C  1229  1  0.43869900  0.15333000  0.68211000  1
  C  1230  1  0.46615200  0.15349200  0.68205300  1
  C  1233  1  0.39654600  0.15754400  0.65891600  1
  C  1234  1  0.38196100  0.14115300  0.64194600  1
  C  1235  1  0.35431400  0.14204900  0.64248800  1
  C  1236  1  0.34049800  0.15882600  0.65952500  1
  C  1237  1  0.35535700  0.17477800  0.67644500  1
  C  1238  1  0.38279600  0.17413600  0.67616800  1
  C  1249  1  0.84041500  0.16154700  0.65896700  1
  C  1250  1  0.85446100  0.15694500  0.63551600  1
  C  1251  1  0.88211400  0.15733400  0.63590000  1
  C  1252  1  0.89626800  0.16238500  0.65903300  1
  C  1253  1  0.88199300  0.16685500  0.68219400  1
  C  1254  1  0.85454100  0.16659600  0.68213000  1
  C  1257  1  0.92416900  0.16279600  0.65900400  1
  C  1258  1  0.93870100  0.17921000  0.64201000  1
  C  1259  1  0.96635200  0.17839700  0.64254700  1
  C  1260  1  0.98021800  0.16168200  0.65960100  1
  C  1261  1  0.96541300  0.14570800  0.67654400  1
  C  1262  1  0.93797300  0.14626600  0.67627100  1
  C  1273  1  0.65890100  0.48029300  0.15837500  1
  C  1274  1  0.63546100  0.46625700  0.16304700  1
  C  1275  1  0.63584400  0.43860200  0.16267900  1
  C  1276  1  0.65896900  0.42444500  0.15759500  1
  C  1277  1  0.68212000  0.43871300  0.15307100  1
  C  1278  1  0.68205500  0.46616500  0.15330100  1
  C  1281  1  0.65894400  0.39654400  0.15717900  1
  C  1282  1  0.64196600  0.38201200  0.14075100  1
  C  1283  1  0.64254700  0.35436000  0.14151800  1
  C  1284  1  0.65963400  0.34049100  0.15820000  1
  C  1285  1  0.67654600  0.35530100  0.17420500  1
  C  1286  1  0.67623000  0.38274100  0.17369000  1
  C  1297  1  0.65897300  0.84041100  0.16167300  1
  C  1298  1  0.63553200  0.85447300  0.15707000  1
  C  1299  1  0.63592400  0.88212600  0.15752500  1
  C  1300  1  0.65905300  0.89626000  0.16264800  1
  C  1301  1  0.68220400  0.88197000  0.16711100  1
  C  1302  1  0.68213300  0.85452000  0.16678400  1
  C  1305  1  0.65903000  0.92416100  0.16315600  1
  C  1306  1  0.64203000  0.93864200  0.17961100  1
  C  1307  1  0.64260500  0.96629300  0.17892600  1
  C  1308  1  0.65970700  0.98021600  0.16230400  1
  C  1309  1  0.67664200  0.96545800  0.14627400  1
  C  1310  1  0.67633200  0.93801600  0.14670500  1
  C  1321  1  0.65898700  0.15835000  0.84041900  1
  C  1322  1  0.63554700  0.16297700  0.85447700  1
  C  1323  1  0.63594100  0.16257200  0.88213000  1
  C  1324  1  0.65907200  0.15747800  0.89627200  1
  C  1325  1  0.68222100  0.15298500  0.88198600  1
  C  1326  1  0.68214700  0.15326200  0.85453300  1
  C  1329  1  0.65905900  0.15704500  0.92417500  1
  C  1330  1  0.64205500  0.14064400  0.93870800  1
  C  1331  1  0.64263700  0.14141300  0.96636000  1
  C  1332  1  0.65974900  0.15806900  0.98022600  1
  C  1333  1  0.67668700  0.17404800  0.96541500  1
  C  1334  1  0.67637100  0.17353100  0.93797500  1
  C  1345  1  0.65887700  0.16180200  0.48030100  1
  C  1346  1  0.63544400  0.15714000  0.46624900  1
  C  1347  1  0.63582800  0.15758900  0.43859600  1
  C  1348  1  0.65894800  0.16274700  0.42445600  1
  C  1349  1  0.68209200  0.16725800  0.43873800  1
  C  1350  1  0.68202600  0.16694700  0.46618900  1
  C  1353  1  0.65892600  0.16324400  0.39655300  1
  C  1354  1  0.64193200  0.17969300  0.38206400  1
  C  1355  1  0.64252700  0.17901300  0.35441100  1
  C  1356  1  0.65964800  0.16240000  0.34049800  1
  C  1357  1  0.67657000  0.14636800  0.35527000  1
  C  1358  1  0.67624200  0.14679700  0.38271000  1
  C  1369  1  0.15850800  0.48029500  0.66147200  1
  C  1370  1  0.16314800  0.46620600  0.68488600  1
  C  1371  1  0.16282800  0.43855300  0.68443000  1
  C  1372  1  0.15781700  0.42444800  0.66125700  1
  C  1373  1  0.15331100  0.43877000  0.63813400  1
  C  1374  1  0.15349400  0.46622400  0.63827100  1
  C  1377  1  0.15748400  0.39654600  0.66121600  1
  C  1378  1  0.14108300  0.38192800  0.67814800  1
  C  1379  1  0.14198000  0.35428200  0.67755300  1
  C  1380  1  0.15877100  0.34050000  0.66050200  1
  C  1381  1  0.17472800  0.35539200  0.64361600  1
  C  1382  1  0.17408400  0.38283100  0.64394600  1
  C  1393  1  0.16160100  0.84042100  0.66158900  1
  C  1394  1  0.15697700  0.85452000  0.68500300  1
  C  1395  1  0.15734100  0.88217300  0.68455200  1
  C  1396  1  0.16238900  0.89627400  0.66138600  1
  C  1397  1  0.16687200  0.88194900  0.63826100  1
  C  1398  1  0.16663600  0.85449800  0.63839400  1
  C  1401  1  0.16279700  0.92417700  0.66134700  1
  C  1402  1  0.17922000  0.93874900  0.67829600  1
  C  1403  1  0.17841200  0.96639900  0.67768500  1
  C  1404  1  0.16169500  0.98022400  0.66059800  1
  C  1405  1  0.14571400  0.96537600  0.64369800  1
  C  1406  1  0.14626600  0.93793600  0.64404500  1
  C  1417  1  0.48029900  0.65887500  0.16179300  1
  C  1418  1  0.46624700  0.63544200  0.15713300  1
  C  1419  1  0.43859200  0.63582800  0.15757700  1
  C  1420  1  0.42445400  0.65895000  0.16273100  1
  C  1421  1  0.43873800  0.68209400  0.16724000  1
  C  1422  1  0.46618900  0.68202600  0.16693300  1
  C  1425  1  0.39655300  0.65893200  0.16322200  1
  C  1426  1  0.38205900  0.64194000  0.17967000  1
  C  1427  1  0.35440300  0.64253500  0.17898200  1
  C  1428  1  0.34049700  0.65965200  0.16236200  1
  C  1429  1  0.35527200  0.67657200  0.14633100  1
  C  1430  1  0.38271400  0.67624200  0.14677000  1
  C  1441  1  0.84041700  0.65898500  0.15834200  1
  C  1442  1  0.85447500  0.63554500  0.16296900  1
  C  1443  1  0.88213000  0.63594100  0.16256100  1
  C  1444  1  0.89627000  0.65907200  0.15746200  1
  C  1445  1  0.88198400  0.68221900  0.15297100  1
  C  1446  1  0.85453100  0.68214700  0.15325200  1
  C  1449  1  0.92417300  0.65905900  0.15702500  1
  C  1450  1  0.93870300  0.64205300  0.14062100  1
  C  1451  1  0.96635400  0.64263500  0.14138100  1
  C  1452  1  0.98022400  0.65974900  0.15803400  1
  C  1453  1  0.96541700  0.67668500  0.17401600  1
  C  1454  1  0.93797700  0.67637100  0.17350600  1
  C  1465  1  0.31722600  0.88398400  0.86485800  1
  C  1466  1  0.31694900  0.86495100  0.88389800  1
  C  1467  1  0.31680500  0.84057000  0.87169500  1
  C  1469  1  0.31678900  0.87177900  0.84047600  1
  C  1470  1  0.31671500  0.88505100  0.81603600  1
  C  1471  1  0.31636100  0.87242100  0.79133400  1
  C  1473  1  0.31568200  0.84144800  0.76035900  1
  C  1474  1  0.31594500  0.86573800  0.74800800  1
  C  1475  1  0.31608400  0.88477200  0.76704200  1
  C  1476  1  0.31534100  0.81674600  0.74772900  1
  C  1477  1  0.31527400  0.79230600  0.76100100  1
  C  1479  1  0.31526100  0.76108700  0.79220800  1
  C  1480  1  0.31514400  0.74888400  0.76782500  1
  C  1481  1  0.31485500  0.76792400  0.74879400  1
  C  1482  1  0.31540500  0.74780700  0.81664100  1
  C  1483  1  0.31575600  0.76044700  0.84134400  1
  C  1485  1  0.31628300  0.79143200  0.87233100  1
  C  1486  1  0.31633400  0.76713200  0.88467200  1
  C  1487  1  0.31570500  0.74810400  0.86564400  1
  C  1488  1  0.31664800  0.81613500  0.88497100  1
  C  1489  1  0.31682300  0.81633400  0.91290500  1
  C  1490  1  0.29411400  0.80986500  0.92716400  1
  C  1491  1  0.29444900  0.80942100  0.95462800  1
  C  1492  1  0.31737100  0.81581000  0.96860400  1
  C  1493  1  0.33993800  0.82275300  0.95432300  1
  C  1494  1  0.33975100  0.82274700  0.92684400  1
  C  1495  1  0.31528200  0.71987300  0.81643600  1
  C  1496  1  0.29239500  0.70588700  0.80998100  1
  C  1497  1  0.29227800  0.67840600  0.80993800  1
  C  1498  1  0.31488200  0.66417400  0.81685300  1
  C  1499  1  0.33776100  0.67819700  0.82328900  1
  C  1500  1  0.33802200  0.70566300  0.82290300  1
  C  1501  1  0.31516500  0.81652800  0.71980300  1
  C  1502  1  0.33783500  0.80972300  0.70564400  1
  C  1503  1  0.33756400  0.80914400  0.67818200  1
  C  1504  1  0.31475000  0.81571800  0.66411000  1
  C  1505  1  0.29221300  0.82294200  0.67829900  1
  C  1506  1  0.29233800  0.82310600  0.70577800  1
  C  1507  1  0.31691800  0.91297700  0.81624900  1
  C  1508  1  0.33974800  0.92698000  0.80963900  1
  C  1509  1  0.29426000  0.92716000  0.82304700  1
  C  1510  1  0.29454700  0.95462400  0.82358000  1
  C  1511  1  0.31736000  0.96867400  0.81696100  1
  C  1512  1  0.33988300  0.95446000  0.80974300  1
  C  1539  1  0.86495900  0.31596100  0.88399200  1
  C  1540  1  0.88399600  0.31603500  0.86495300  1
  C  1541  1  0.87178300  0.31632100  0.84057600  1
  C  1543  1  0.84058100  0.31570500  0.87178300  1
  C  1544  1  0.81614500  0.31540900  0.88505100  1
  C  1545  1  0.79143800  0.31530600  0.87241900  1
  C  1547  1  0.76044700  0.31523300  0.84144400  1
  C  1548  1  0.74810600  0.31509900  0.86574100  1
  C  1549  1  0.76714600  0.31485700  0.88476800  1
  C  1550  1  0.74780500  0.31535600  0.81674400  1
  C  1551  1  0.76108100  0.31573300  0.79230800  1
  C  1553  1  0.79229400  0.31632800  0.76108800  1
  C  1554  1  0.76790700  0.31636600  0.74889000  1
  C  1555  1  0.74887800  0.31569400  0.76792200  1
  C  1556  1  0.81672800  0.31673000  0.74780900  1
  C  1557  1  0.84143000  0.31684800  0.76044700  1
  C  1559  1  0.87240900  0.31675800  0.79143400  1
  C  1560  1  0.88475400  0.31723000  0.76714000  1
  C  1561  1  0.86572600  0.31700600  0.74810200  1
  C  1562  1  0.88504700  0.31663400  0.81613900  1
  C  1563  1  0.91297500  0.31677600  0.81633400  1
  C  1564  1  0.92719500  0.29411700  0.80961800  1
  C  1565  1  0.95465900  0.29441800  0.80918100  1
  C  1566  1  0.96867000  0.31725600  0.81579600  1
  C  1567  1  0.95442100  0.33977000  0.82297100  1
  C  1568  1  0.92693900  0.33961600  0.82299300  1
  C  1569  1  0.81650800  0.31696700  0.71987700  1
  C  1570  1  0.80993400  0.29426400  0.70565500  1
  C  1571  1  0.80935400  0.29459500  0.67819100  1
  C  1572  1  0.81570400  0.31750700  0.66418000  1
  C  1573  1  0.82271000  0.34007800  0.67842300  1
  C  1574  1  0.82284600  0.33989300  0.70590100  1
  C  1575  1  0.71987100  0.31519800  0.81652800  1
  C  1576  1  0.70572400  0.33794200  0.80994300  1
  C  1577  1  0.67826000  0.33769700  0.80936200  1
  C  1578  1  0.66417600  0.31483500  0.81573400  1
  C  1579  1  0.67834300  0.29222500  0.82275700  1
  C  1580  1  0.70582300  0.29232100  0.82288900  1
  C  1581  1  0.81634600  0.31526500  0.91297900  1
  C  1582  1  0.80964900  0.33792800  0.92720100  1
  C  1583  1  0.82298100  0.29241800  0.92693900  1
  C  1584  1  0.82296300  0.29226200  0.95442100  1
  C  1585  1  0.81580600  0.31477900  0.96867400  1
  C  1586  1  0.80921400  0.33762600  0.95466500  1
  C  1613  1  0.88399000  0.86495500  0.31596500  1
  C  1614  1  0.86494900  0.88399200  0.31605300  1
  C  1615  1  0.84057200  0.87177900  0.31632300  1
  C  1617  1  0.87178100  0.84057600  0.31570500  1
  C  1618  1  0.88504900  0.81614100  0.31540500  1
  C  1619  1  0.87241500  0.79143400  0.31529800  1
  C  1621  1  0.84144200  0.76044300  0.31521800  1
  C  1622  1  0.86573800  0.74810200  0.31507700  1
  C  1623  1  0.88476400  0.76714200  0.31483900  1
  C  1624  1  0.81674200  0.74780100  0.31535000  1
  C  1625  1  0.79230400  0.76107700  0.31574600  1
  C  1627  1  0.76108700  0.79228800  0.31633600  1
  C  1628  1  0.74888800  0.76790300  0.31638300  1
  C  1629  1  0.76791800  0.74887200  0.31571300  1
  C  1630  1  0.74780700  0.81672500  0.31672900  1
  C  1631  1  0.76044300  0.84142600  0.31684100  1
  C  1633  1  0.79143000  0.87240600  0.31675800  1
  C  1634  1  0.76713600  0.88475000  0.31722400  1
  C  1635  1  0.74810000  0.86572200  0.31699900  1
  C  1636  1  0.81613500  0.88504300  0.31664100  1
  C  1637  1  0.81633200  0.91296900  0.31680800  1
  C  1638  1  0.80962400  0.92721500  0.29416200  1
  C  1639  1  0.80918800  0.95467800  0.29449200  1
  C  1640  1  0.81579200  0.96866600  0.31734800  1
  C  1641  1  0.82295200  0.95439000  0.33985100  1
  C  1642  1  0.82297900  0.92690800  0.33966600  1
  C  1643  1  0.71987300  0.81650200  0.31696500  1
  C  1644  1  0.70565500  0.80992600  0.29426200  1
  C  1645  1  0.67819100  0.80933900  0.29459300  1
  C  1646  1  0.66417800  0.81570000  0.31750100  1
  C  1647  1  0.67842000  0.82269800  0.34007400  1
  C  1648  1  0.70589700  0.82284200  0.33989000  1
  C  1649  1  0.81652600  0.71986700  0.31516700  1
  C  1650  1  0.80994700  0.70569400  0.33789700  1
  C  1651  1  0.80936200  0.67823000  0.33762200  1
  C  1652  1  0.81573000  0.66417100  0.31474400  1
  C  1653  1  0.82274300  0.67836500  0.29214700  1
  C  1654  1  0.82287600  0.70584400  0.29227200  1
  C  1655  1  0.91297500  0.81634200  0.31526100  1
  C  1656  1  0.92720100  0.80964100  0.33792300  1
  C  1657  1  0.92693600  0.82298300  0.29241400  1
  C  1658  1  0.95441700  0.82295600  0.29225400  1
  C  1659  1  0.96867200  0.81580400  0.31477500  1
  C  1660  1  0.95466500  0.80921200  0.33762000  1
  C  1687  1  0.81625600  0.38442800  0.36430000  1
  C  1688  1  0.81626600  0.36555600  0.38352700  1
  C  1689  1  0.81633400  0.34107900  0.37151200  1
  C  1691  1  0.81634200  0.37195800  0.34005200  1
  C  1692  1  0.81633600  0.38491800  0.31547900  1
  C  1693  1  0.81635200  0.37214700  0.29087700  1
  C  1695  1  0.81637300  0.34092200  0.26022900  1
  C  1696  1  0.81633100  0.36507900  0.24761900  1
  C  1697  1  0.81632900  0.38430300  0.26648800  1
  C  1698  1  0.81636200  0.31608800  0.24792000  1
  C  1699  1  0.81636000  0.29176100  0.26133700  1
  C  1701  1  0.81637000  0.26088300  0.29279700  1
  C  1702  1  0.81629100  0.24841300  0.26855000  1
  C  1703  1  0.81629900  0.26728400  0.24932200  1
  C  1704  1  0.81636200  0.24792300  0.31736800  1
  C  1705  1  0.81636400  0.26069400  0.34197000  1
  C  1707  1  0.81636000  0.29191700  0.37261900  1
  C  1708  1  0.81631100  0.26775800  0.38522800  1
  C  1709  1  0.81632900  0.24853600  0.36635900  1
  C  1710  1  0.81633800  0.31675200  0.38492900  1
  C  1711  1  0.81620800  0.31722400  0.41277000  1
  C  1712  1  0.79243500  0.31787800  0.42665200  1
  C  1713  1  0.79233300  0.31827400  0.45411900  1
  C  1714  1  0.81590500  0.31799000  0.46859300  1
  C  1715  1  0.83963500  0.31728400  0.45440400  1
  C  1716  1  0.83982800  0.31693400  0.42693000  1
  C  1717  1  0.81623900  0.22007900  0.31741400  1
  C  1718  1  0.79246800  0.20618700  0.31796000  1
  C  1719  1  0.79237400  0.17871900  0.31822500  1
  C  1720  1  0.81595200  0.16425600  0.31791100  1
  C  1721  1  0.83967800  0.17845400  0.31727200  1
  C  1722  1  0.83986400  0.20593000  0.31706200  1
  C  1723  1  0.81625100  0.31560800  0.22008100  1
  C  1724  1  0.83988300  0.31582800  0.20593700  1
  C  1725  1  0.83970700  0.31542300  0.17846600  1
  C  1726  1  0.81598700  0.31470700  0.16426300  1
  C  1727  1  0.79240300  0.31449600  0.17871900  1
  C  1728  1  0.79248500  0.31496400  0.20618300  1
  C  1729  1  0.81620200  0.41276200  0.31542700  1
  C  1730  1  0.83981900  0.42692500  0.31579700  1
  C  1731  1  0.79242500  0.42664400  0.31481000  1
  C  1732  1  0.79232100  0.45411100  0.31448200  1
  C  1733  1  0.81589200  0.46858700  0.31480600  1
  C  1734  1  0.83962200  0.45439900  0.31552200  1
  C  1761  1  0.36430000  0.81625600  0.38436300  1
  C  1762  1  0.38352700  0.81626600  0.36549100  1
  C  1763  1  0.37151200  0.81633200  0.34101400  1
  C  1765  1  0.34005200  0.81634200  0.37189300  1
  C  1766  1  0.31547900  0.81633600  0.38485400  1
  C  1767  1  0.29087900  0.81635200  0.37208300  1
  C  1769  1  0.26022900  0.81637300  0.34085900  1
  C  1770  1  0.24761900  0.81633100  0.36501700  1
  C  1771  1  0.26648800  0.81633100  0.38424000  1
  C  1772  1  0.24792000  0.81636600  0.31602500  1
  C  1773  1  0.26133500  0.81636200  0.29169800  1
  C  1775  1  0.29279500  0.81636600  0.26081900  1
  C  1776  1  0.26854600  0.81629300  0.24834900  1
  C  1777  1  0.24932000  0.81630100  0.26722100  1
  C  1778  1  0.31736600  0.81635600  0.24785700  1
  C  1779  1  0.34196800  0.81636200  0.26062700  1
  C  1781  1  0.37261800  0.81636200  0.29185300  1
  C  1782  1  0.38522600  0.81631100  0.26769300  1
  C  1783  1  0.36635700  0.81632700  0.24847000  1
  C  1784  1  0.38492800  0.81633600  0.31668700  1
  C  1785  1  0.41276900  0.81621000  0.31715900  1
  C  1786  1  0.42665200  0.79243500  0.31781800  1
  C  1787  1  0.45411900  0.79233500  0.31823600  1
  C  1788  1  0.46859100  0.81590700  0.31794300  1
  C  1789  1  0.45440200  0.83963500  0.31721700  1
  C  1790  1  0.42692800  0.83983000  0.31687200  1
  C  1791  1  0.31741100  0.81623500  0.22001500  1
  C  1792  1  0.31795000  0.79246400  0.20612100  1
  C  1793  1  0.31820800  0.79237200  0.17865300  1
  C  1794  1  0.31790900  0.81595000  0.16418900  1
  C  1795  1  0.31727700  0.83967600  0.17839000  1
  C  1796  1  0.31706500  0.83986200  0.20586300  1
  C  1797  1  0.22008100  0.81625200  0.31554700  1
  C  1798  1  0.20593500  0.83988500  0.31577400  1
  C  1799  1  0.17846400  0.83970700  0.31537200  1
  C  1800  1  0.16426200  0.81598700  0.31466200  1
  C  1801  1  0.17871700  0.79240300  0.31445100  1
  C  1802  1  0.20618300  0.79248700  0.31491000  1
  C  1803  1  0.31542800  0.81620200  0.41269700  1
  C  1804  1  0.31580100  0.83982100  0.42685900  1
  C  1805  1  0.31480800  0.79242700  0.42657900  1
  C  1806  1  0.31448000  0.79232100  0.45404600  1
  C  1807  1  0.31481000  0.81589200  0.46852000  1
  C  1808  1  0.31554400  0.83962400  0.45433400  1
  C  1835  1  0.38399200  0.36495500  0.81600300  1
  C  1836  1  0.36493800  0.38400500  0.81601600  1
  C  1837  1  0.34057700  0.37175900  0.81600300  1
  C  1839  1  0.37175100  0.34059100  0.81601400  1
  C  1840  1  0.38493000  0.31613700  0.81601600  1
  C  1841  1  0.37237900  0.29142100  0.81601800  1
  C  1843  1  0.34144300  0.26047900  0.81603600  1
  C  1844  1  0.36572000  0.24809900  0.81604000  1
  C  1845  1  0.38476300  0.26714500  0.81603800  1
  C  1846  1  0.31673000  0.24792500  0.81604000  1
  C  1847  1  0.29227400  0.26109900  0.81603200  1
  C  1849  1  0.26110100  0.29226600  0.81604200  1
  C  1850  1  0.24885800  0.26790200  0.81604200  1
  C  1851  1  0.26791200  0.24885200  0.81605300  1
  C  1852  1  0.24792100  0.31671900  0.81604000  1
  C  1853  1  0.26047100  0.34143500  0.81602400  1
  C  1855  1  0.29140600  0.37237700  0.81601800  1
  C  1856  1  0.26712800  0.38475700  0.81601600  1
  C  1857  1  0.24808500  0.36571000  0.81603000  1
  C  1858  1  0.31612000  0.38493400  0.81601100  1
  C  1859  1  0.31629000  0.41277800  0.81612400  1
  C  1860  1  0.31664800  0.42692700  0.79249500  1
  C  1861  1  0.31633200  0.45440200  0.79267500  1
  C  1862  1  0.31553200  0.46860000  0.81639700  1
  C  1863  1  0.31525100  0.45414000  0.83997500  1
  C  1864  1  0.31563500  0.42667400  0.83988900  1
  C  1865  1  0.22007700  0.31653700  0.81597000  1
  C  1866  1  0.20614000  0.31710400  0.79222600  1
  C  1867  1  0.17867400  0.31741400  0.79218700  1
  C  1868  1  0.16425600  0.31714800  0.81579200  1
  C  1869  1  0.17849700  0.31644500  0.83949100  1
  C  1870  1  0.20597200  0.31620400  0.83962400  1
  C  1871  1  0.31655300  0.22008100  0.81616900  1
  C  1872  1  0.31711900  0.20619900  0.83994400  1
  C  1873  1  0.31742900  0.17873300  0.84004700  1
  C  1874  1  0.31716300  0.16426200  0.81647500  1
  C  1875  1  0.31645800  0.17844600  0.79274300  1
  C  1876  1  0.31621500  0.20592200  0.79254800  1
  C  1877  1  0.41277400  0.31631300  0.81593400  1
  C  1878  1  0.42689400  0.31666700  0.83957900  1
  C  1879  1  0.42670000  0.31566500  0.79218500  1
  C  1880  1  0.45416600  0.31528800  0.79213200  1
  C  1881  1  0.46859700  0.31557300  0.81573000  1
  C  1882  1  0.45436900  0.31635600  0.83943400  1
  C  1909  1  0.31445100  0.81495700  0.63629700  1
  C  1910  1  0.31907900  0.79151000  0.62225500  1
  C  1911  1  0.31871400  0.79189800  0.59460000  1
  C  1912  1  0.31366500  0.81503100  0.58044400  1
  C  1913  1  0.30918000  0.83818800  0.59471700  1
  C  1914  1  0.30941600  0.83812100  0.62216700  1
  C  1917  1  0.31324700  0.81501000  0.55254300  1
  C  1918  1  0.29680800  0.79804300  0.53801000  1
  C  1919  1  0.29757600  0.79862700  0.51035800  1
  C  1920  1  0.31426800  0.81570400  0.49649100  1
  C  1921  1  0.33028400  0.83260400  0.51130200  1
  C  1922  1  0.32976900  0.83228800  0.53874300  1
  C  1933  1  0.31776500  0.81505700  0.99641300  1
  C  1934  1  0.31311500  0.79162100  0.01046880  1
  C  1935  1  0.31356900  0.79200500  0.03812180  1
  C  1936  1  0.31872900  0.81512500  0.05225980  1
  C  1937  1  0.32323500  0.83827200  0.03797380  1
  C  1938  1  0.32291600  0.83820500  0.01052280  1
  C  1941  1  0.31923100  0.81510000  0.08016080  1
  C  1942  1  0.33567200  0.79808800  0.09464180  1
  C  1943  1  0.33498500  0.79866200  0.12229500  1
  C  1944  1  0.31837300  0.81577500  0.13621600  1
  C  1945  1  0.30235600  0.83272000  0.12145800  1
  C  1946  1  0.30279100  0.83241100  0.09401580  1
  C  1957  1  0.63636500  0.31457000  0.81496300  1
  C  1958  1  0.62234800  0.31923700  0.79151200  1
  C  1959  1  0.59469100  0.31894000  0.79188800  1
  C  1960  1  0.58051600  0.31392800  0.81501800  1
  C  1961  1  0.59476700  0.30939800  0.83817800  1
  C  1962  1  0.62222000  0.30956000  0.83812100  1
  C  1965  1  0.55261400  0.31361200  0.81498400  1
  C  1966  1  0.53802900  0.29722100  0.79801400  1
  C  1967  1  0.51038200  0.29811700  0.79855600  1
  C  1968  1  0.49656600  0.31489400  0.81559300  1
  C  1969  1  0.51142500  0.33084600  0.83251300  1
  C  1970  1  0.53886400  0.33020400  0.83223600  1
  C  1981  1  0.99648300  0.31761500  0.81503500  1
  C  1982  1  0.01052880  0.31301300  0.79158400  1
  C  1983  1  0.03818180  0.31340200  0.79196800  1
  C  1984  1  0.05233580  0.31845300  0.81510100  1
  C  1985  1  0.03806080  0.32292300  0.83826200  1
  C  1986  1  0.01060880  0.32266400  0.83819800  1
  C  1989  1  0.08023680  0.31886400  0.81507200  1
  C  1990  1  0.09476880  0.33527800  0.79807800  1
  C  1991  1  0.12242000  0.33446500  0.79861500  1
  C  1992  1  0.13628600  0.31775000  0.81566900  1
  C  1993  1  0.12148100  0.30177600  0.83261200  1
  C  1994  1  0.09404080  0.30233400  0.83233900  1
  C  2005  1  0.81496900  0.63636100  0.31444300  1
  C  2006  1  0.79152900  0.62232500  0.31911500  1
  C  2007  1  0.79191200  0.59467000  0.31874700  1
  C  2008  1  0.81503700  0.58051300  0.31366300  1
  C  2009  1  0.83818800  0.59478100  0.30913900  1
  C  2010  1  0.83812300  0.62223300  0.30936900  1
  C  2013  1  0.81501200  0.55261200  0.31324700  1
  C  2014  1  0.79803400  0.53808000  0.29681900  1
  C  2015  1  0.79861500  0.51042800  0.29758600  1
  C  2016  1  0.81570200  0.49655900  0.31426800  1
  C  2017  1  0.83261400  0.51136900  0.33027300  1
  C  2018  1  0.83229800  0.53880900  0.32975800  1
  C  2029  1  0.81504100  0.99647900  0.31774100  1
  C  2030  1  0.79160000  0.01054080  0.31313800  1
  C  2031  1  0.79199200  0.03819380  0.31359300  1
  C  2032  1  0.81512100  0.05232780  0.31871600  1
  C  2033  1  0.83827200  0.03803780  0.32317900  1
  C  2034  1  0.83820100  0.01058780  0.32285200  1
  C  2037  1  0.81509800  0.08022880  0.31922400  1
  C  2038  1  0.79809800  0.09470980  0.33567900  1
  C  2039  1  0.79867300  0.12236100  0.33499400  1
  C  2040  1  0.81577500  0.13628400  0.31837200  1
  C  2041  1  0.83271000  0.12152600  0.30234200  1
  C  2042  1  0.83240000  0.09408380  0.30277300  1
  C  2053  1  0.81505500  0.31441800  0.99648700  1
  C  2054  1  0.79161500  0.31904500  0.01054480  1
  C  2055  1  0.79200900  0.31864000  0.03819780  1
  C  2056  1  0.81514000  0.31354600  0.05233980  1
  C  2057  1  0.83828900  0.30905300  0.03805380  1
  C  2058  1  0.83821500  0.30933000  0.01060080  1
  C  2061  1  0.81512700  0.31311300  0.08024280  1
  C  2062  1  0.79812300  0.29671200  0.09477580  1
  C  2063  1  0.79870500  0.29748100  0.12242800  1
  C  2064  1  0.81581700  0.31413700  0.13629400  1
  C  2065  1  0.83275500  0.33011600  0.12148300  1
  C  2066  1  0.83243900  0.32959900  0.09404280  1
  C  2077  1  0.81494500  0.31787000  0.63636900  1
  C  2078  1  0.79151200  0.31320800  0.62231700  1
  C  2079  1  0.79189600  0.31365700  0.59466400  1
  C  2080  1  0.81501600  0.31881500  0.58052400  1
  C  2081  1  0.83816000  0.32332600  0.59480600  1
  C  2082  1  0.83809400  0.32301500  0.62225700  1
  C  2085  1  0.81499400  0.31931200  0.55262100  1
  C  2086  1  0.79800000  0.33576100  0.53813200  1
  C  2087  1  0.79859500  0.33508100  0.51047900  1
  C  2088  1  0.81571600  0.31846800  0.49656600  1
  C  2089  1  0.83263800  0.30243600  0.51133800  1
  C  2090  1  0.83231000  0.30286500  0.53877800  1
  C  2101  1  0.31457600  0.63636300  0.81754000  1
  C  2102  1  0.31921600  0.62227400  0.84095400  1
  C  2103  1  0.31889600  0.59462100  0.84049800  1
  C  2104  1  0.31388500  0.58051600  0.81732500  1
  C  2105  1  0.30937900  0.59483800  0.79420200  1
  C  2106  1  0.30956200  0.62229200  0.79433900  1
  C  2109  1  0.31355200  0.55261400  0.81728400  1
  C  2110  1  0.29715100  0.53799600  0.83421600  1
  C  2111  1  0.29804800  0.51035000  0.83362100  1
  C  2112  1  0.31483900  0.49656800  0.81657000  1
  C  2113  1  0.33079600  0.51146000  0.79968400  1
  C  2114  1  0.33015200  0.53889900  0.80001400  1
  C  2125  1  0.31766900  0.99648900  0.81765700  1
  C  2126  1  0.31304500  0.01058780  0.84107100  1
  C  2127  1  0.31340900  0.03824080  0.84062000  1
  C  2128  1  0.31845700  0.05234180  0.81745400  1
  C  2129  1  0.32294000  0.03801680  0.79432900  1
  C  2130  1  0.32270400  0.01056580  0.79446200  1
  C  2133  1  0.31886500  0.08024480  0.81741500  1
  C  2134  1  0.33528800  0.09481680  0.83436400  1
  C  2135  1  0.33448000  0.12246700  0.83375300  1
  C  2136  1  0.31776300  0.13629200  0.81666600  1
  C  2137  1  0.30178200  0.12144400  0.79976600  1
  C  2138  1  0.30233400  0.09400380  0.80011300  1
  C  2149  1  0.63636700  0.81494300  0.31786100  1
  C  2150  1  0.62231500  0.79151000  0.31320100  1
  C  2151  1  0.59466000  0.79189600  0.31364500  1
  C  2152  1  0.58052200  0.81501800  0.31879900  1
  C  2153  1  0.59480600  0.83816200  0.32330800  1
  C  2154  1  0.62225700  0.83809400  0.32300100  1
  C  2157  1  0.55262100  0.81500000  0.31929000  1
  C  2158  1  0.53812700  0.79800800  0.33573800  1
  C  2159  1  0.51047100  0.79860300  0.33505000  1
  C  2160  1  0.49656500  0.81572000  0.31843000  1
  C  2161  1  0.51134000  0.83264000  0.30239900  1
  C  2162  1  0.53878200  0.83231000  0.30283800  1
  C  2173  1  0.99648500  0.81505300  0.31441000  1
  C  2174  1  0.01054280  0.79161300  0.31903700  1
  C  2175  1  0.03819780  0.79200900  0.31862900  1
  C  2176  1  0.05233780  0.81514000  0.31353000  1
  C  2177  1  0.03805180  0.83828700  0.30903900  1
  C  2178  1  0.01059880  0.83821500  0.30932000  1
  C  2181  1  0.08024080  0.81512700  0.31309300  1
  C  2182  1  0.09477080  0.79812100  0.29668900  1
  C  2183  1  0.12242200  0.79870300  0.29744900  1
  C  2184  1  0.13629200  0.81581700  0.31410200  1
  C  2185  1  0.12148500  0.83275300  0.33008400  1
  C  2186  1  0.09404480  0.83243900  0.32957400  1
  N  4  1  0.00450600  0.53368100  0.53359500  1
  N  8  1  0.00388800  0.53438300  0.47412900  1
  N  14  1  0.00327000  0.47491700  0.47482900  1
  N  20  1  0.00388300  0.47421900  0.53428900  1
  N  78  1  0.53368600  0.00388700  0.53368600  1
  N  82  1  0.47421900  0.00329200  0.53437900  1
  N  88  1  0.47490900  0.00388700  0.47491900  1
  N  94  1  0.53436900  0.00449200  0.47421900  1
  N  152  1  0.53368300  0.53368300  0.00387900  1
  N  156  1  0.53437700  0.47421500  0.00329000  1
  N  162  1  0.47491700  0.47490600  0.00389400  1
  N  168  1  0.47421500  0.53436500  0.00448900  1
  N  226  1  0.50426000  0.03392200  0.03337900  1
  N  230  1  0.50425000  0.03407400  0.97393700  1
  N  236  1  0.50428100  0.97464900  0.97519900  1
  N  242  1  0.50425200  0.97449500  0.03464100  1
  N  300  1  0.03337900  0.50425800  0.03385700  1
  N  304  1  0.97393700  0.50425000  0.03401100  1
  N  310  1  0.97519900  0.50427900  0.97458500  1
  N  316  1  0.03463900  0.50425200  0.97443100  1
  N  374  1  0.03366500  0.03367400  0.50387000  1
  N  378  1  0.03435200  0.97423800  0.50388500  1
  N  384  1  0.97491700  0.97491500  0.50389300  1
  N  390  1  0.97422800  0.03435000  0.50388500  1
  N  463  1  0.96705900  0.46921500  0.23910900  1
  N  464  1  0.01099900  0.45577600  0.32391400  1
  N  487  1  0.04107300  0.46922300  0.76921600  1
  N  488  1  0.99680700  0.45590200  0.68454700  1
  N  511  1  0.23907400  0.96739800  0.46922300  1
  N  512  1  0.32403500  0.01114300  0.45579100  1
  N  535  1  0.76940100  0.04077500  0.46926800  1
  N  536  1  0.68460600  0.99682100  0.45584600  1
  N  559  1  0.46919700  0.23918100  0.96708000  1
  N  560  1  0.45580900  0.32399600  0.01108500  1
  N  583  1  0.46924400  0.76928400  0.04109200  1
  N  584  1  0.45586300  0.68463300  0.99688100  1
  N  607  1  0.46925600  0.96699800  0.76940700  1
  N  608  1  0.45587700  0.01101000  0.68463100  1
  N  631  1  0.46913100  0.04116300  0.23928100  1
  N  632  1  0.45579700  0.99689500  0.32397500  1
  N  655  1  0.96731600  0.23900800  0.53875500  1
  N  656  1  0.01112100  0.32388900  0.55244800  1
  N  679  1  0.04078800  0.76948900  0.53893400  1
  N  680  1  0.99685600  0.68471500  0.55257100  1
  N  703  1  0.23926900  0.46914100  0.04114700  1
  N  704  1  0.32396900  0.45579500  0.99689300  1
  N  727  1  0.76939700  0.46925400  0.96697900  1
  N  728  1  0.68463100  0.45587700  0.01100400  1
  N  736  1  0.16057300  0.68974800  0.68966200  1
  N  740  1  0.15995500  0.69045000  0.63019600  1
  N  746  1  0.15933700  0.63098400  0.63089600  1
  N  752  1  0.15995000  0.63028600  0.69035600  1
  N  810  1  0.68975300  0.15995400  0.68975300  1
  N  814  1  0.63028600  0.15935900  0.69044600  1
  N  820  1  0.63097600  0.15995400  0.63098600  1
  N  826  1  0.69043600  0.16055900  0.63028600  1
  N  884  1  0.68975000  0.68975000  0.15994600  1
  N  888  1  0.69044400  0.63028200  0.15935700  1
  N  894  1  0.63098400  0.63097300  0.15996100  1
  N  900  1  0.63028200  0.69043200  0.16055600  1
  N  958  1  0.66032700  0.18998900  0.18944600  1
  N  962  1  0.66031700  0.19014100  0.13000400  1
  N  968  1  0.66034800  0.13071600  0.13126600  1
  N  974  1  0.66031900  0.13056200  0.19070800  1
  N  1032  1  0.18944600  0.66032500  0.18992400  1
  N  1036  1  0.13000400  0.66031700  0.19007800  1
  N  1042  1  0.13126600  0.66034600  0.13065200  1
  N  1048  1  0.19070600  0.66031900  0.13049800  1
  N  1106  1  0.18973200  0.18974100  0.65993700  1
  N  1110  1  0.19041900  0.13030500  0.65995200  1
  N  1116  1  0.13098400  0.13098200  0.65996000  1
  N  1122  1  0.13029500  0.19041700  0.65995200  1
  N  1195  1  0.12312600  0.62528200  0.39517600  1
  N  1196  1  0.16706600  0.61184300  0.47998100  1
  N  1219  1  0.19714000  0.62529000  0.92528300  1
  N  1220  1  0.15287400  0.61196900  0.84061400  1
  N  1243  1  0.39514100  0.12346500  0.62529000  1
  N  1244  1  0.48010200  0.16721000  0.61185800  1
  N  1267  1  0.92546800  0.19684200  0.62533500  1
  N  1268  1  0.84067300  0.15288800  0.61191300  1
  N  1291  1  0.62526400  0.39524800  0.12314700  1
  N  1292  1  0.61187600  0.48006300  0.16715200  1
  N  1315  1  0.62531100  0.92535100  0.19715900  1
  N  1316  1  0.61193000  0.84070000  0.15294800  1
  N  1339  1  0.62532300  0.12306500  0.92547400  1
  N  1340  1  0.61194400  0.16707700  0.84069800  1
  N  1363  1  0.62519800  0.19723000  0.39534800  1
  N  1364  1  0.61186400  0.15296200  0.48004200  1
  N  1387  1  0.12338300  0.39507500  0.69482200  1
  N  1388  1  0.16718800  0.47995600  0.70851500  1
  N  1411  1  0.19685500  0.92555600  0.69500100  1
  N  1412  1  0.15292300  0.84078200  0.70863800  1
  N  1435  1  0.39533600  0.62520800  0.19721400  1
  N  1436  1  0.48003600  0.61186200  0.15296000  1
  N  1459  1  0.92546400  0.62532100  0.12304600  1
  N  1460  1  0.84069800  0.61194400  0.16707100  1
  N  1468  1  0.31664100  0.84581600  0.84573000  1
  N  1472  1  0.31602300  0.84651800  0.78626400  1
  N  1478  1  0.31540500  0.78705200  0.78696400  1
  N  1484  1  0.31601800  0.78635400  0.84642400  1
  N  1542  1  0.84582100  0.31602200  0.84582100  1
  N  1546  1  0.78635400  0.31542700  0.84651400  1
  N  1552  1  0.78704400  0.31602200  0.78705400  1
  N  1558  1  0.84650400  0.31662700  0.78635400  1
  N  1616  1  0.84581800  0.84581800  0.31601400  1
  N  1620  1  0.84651200  0.78635000  0.31542500  1
  N  1626  1  0.78705200  0.78704100  0.31602900  1
  N  1632  1  0.78635000  0.84650000  0.31662400  1
  N  1690  1  0.81639500  0.34605700  0.34551400  1
  N  1694  1  0.81638500  0.34620900  0.28607200  1
  N  1700  1  0.81641600  0.28678400  0.28733400  1
  N  1706  1  0.81638700  0.28663000  0.34677600  1
  N  1764  1  0.34551400  0.81639300  0.34599200  1
  N  1768  1  0.28607200  0.81638500  0.34614600  1
  N  1774  1  0.28733400  0.81641400  0.28672000  1
  N  1780  1  0.34677400  0.81638700  0.28656600  1
  N  1838  1  0.34580000  0.34580900  0.81600500  1
  N  1842  1  0.34648700  0.28637300  0.81602000  1
  N  1848  1  0.28705200  0.28705000  0.81602800  1
  N  1854  1  0.28636300  0.34648500  0.81602000  1
  N  1927  1  0.27919400  0.78135000  0.55124400  1
  N  1928  1  0.32313400  0.76791100  0.63604900  1
  N  1951  1  0.35320800  0.78135800  0.08135080  1
  N  1952  1  0.30894200  0.76803700  0.99668200  1
  N  1975  1  0.55120900  0.27953300  0.78135800  1
  N  1976  1  0.63617000  0.32327800  0.76792600  1
  N  1999  1  0.08153580  0.35291000  0.78140300  1
  N  2000  1  0.99674100  0.30895600  0.76798100  1
  N  2023  1  0.78133200  0.55131600  0.27921500  1
  N  2024  1  0.76794400  0.63613100  0.32322000  1
  N  2047  1  0.78137900  0.08141880  0.35322700  1
  N  2048  1  0.76799800  0.99676800  0.30901600  1
  N  2071  1  0.78139100  0.27913300  0.08154180  1
  N  2072  1  0.76801200  0.32314500  0.99676600  1
  N  2095  1  0.78126600  0.35329800  0.55141600  1
  N  2096  1  0.76793200  0.30903000  0.63611000  1
  N  2119  1  0.27945100  0.55114300  0.85089000  1
  N  2120  1  0.32325600  0.63602400  0.86458300  1
  N  2143  1  0.35292300  0.08162380  0.85106900  1
  N  2144  1  0.30899100  0.99685000  0.86470600  1
  N  2167  1  0.55140400  0.78127600  0.35328200  1
  N  2168  1  0.63610400  0.76793000  0.30902800  1
  N  2191  1  0.08153180  0.78138900  0.27911400  1
  N  2192  1  0.99676600  0.76801200  0.32313900  1
  O  465  1  0.97127800  0.44565300  0.23378500  1
  O  466  1  0.03277800  0.44586700  0.31858100  1
  O  467  1  0.94377100  0.47449000  0.23355900  1
  O  468  1  0.99345500  0.43938700  0.31893800  1
  O  489  1  0.03681200  0.44566800  0.77454500  1
  O  490  1  0.97501600  0.44606000  0.68995100  1
  O  491  1  0.06438900  0.47443900  0.77469900  1
  O  492  1  0.01431600  0.43945900  0.68946500  1
  O  513  1  0.23379900  0.97161600  0.44564900  1
  O  514  1  0.31875800  0.03294000  0.44589500  1
  O  515  1  0.23341500  0.94414000  0.47451300  1
  O  516  1  0.31902700  0.99362100  0.43938700  1
  O  537  1  0.77468400  0.03654300  0.44569800  1
  O  538  1  0.68995900  0.97505100  0.44592600  1
  O  539  1  0.77499200  0.06405500  0.47452700  1
  O  540  1  0.68956500  0.01437700  0.43946500  1
  O  561  1  0.44563700  0.23385700  0.97131500  1
  O  562  1  0.44594500  0.31866400  0.03288400  1
  O  563  1  0.47445700  0.23363100  0.94378900  1
  O  564  1  0.43938300  0.31902500  0.99357600  1
  O  585  1  0.44568800  0.77461600  0.03684700  1
  O  586  1  0.44597600  0.69004100  0.97511200  1
  O  587  1  0.47447800  0.77476600  0.06440400  1
  O  588  1  0.43946100  0.68955700  0.01442700  1
  O  609  1  0.44570300  0.97127400  0.77473100  1
  O  610  1  0.44599200  0.03279000  0.69000200  1
  O  611  1  0.47447600  0.94370100  0.77496300  1
  O  612  1  0.43947400  0.99347500  0.68958800  1
  O  633  1  0.44557900  0.03690700  0.23393300  1
  O  634  1  0.44596500  0.97509800  0.31857900  1
  O  635  1  0.47435500  0.06447900  0.23380300  1
  O  636  1  0.43934800  0.01439600  0.31905300  1
  O  657  1  0.97152200  0.23368600  0.56232100  1
  O  658  1  0.03290800  0.31856300  0.56234000  1
  O  659  1  0.94406200  0.23335800  0.53343900  1
  O  660  1  0.99358600  0.31884800  0.56882900  1
  O  681  1  0.03656700  0.77483600  0.56249100  1
  O  682  1  0.97507800  0.69007200  0.56246700  1
  O  683  1  0.06406700  0.77506200  0.53364700  1
  O  684  1  0.01440100  0.68972900  0.56894400  1
  O  705  1  0.23392400  0.44558800  0.03689300  1
  O  706  1  0.31857700  0.44595900  0.97509600  1
  O  707  1  0.23378500  0.47436900  0.06446000  1
  O  708  1  0.31904500  0.43934600  0.01439600  1
  O  729  1  0.77472300  0.44570100  0.97125300  1
  O  730  1  0.69000400  0.44599200  0.03278400  1
  O  731  1  0.77494500  0.47447200  0.94368000  1
  O  732  1  0.68958400  0.43947200  0.99346900  1
  O  1197  1  0.12734500  0.60172000  0.38985200  1
  O  1198  1  0.18884500  0.60193400  0.47464800  1
  O  1199  1  0.09983840  0.63055700  0.38962600  1
  O  1200  1  0.14952200  0.59545400  0.47500500  1
  O  1221  1  0.19287900  0.60173500  0.93061200  1
  O  1222  1  0.13108300  0.60212700  0.84601800  1
  O  1223  1  0.22045600  0.63050600  0.93076600  1
  O  1224  1  0.17038300  0.59552600  0.84553200  1
  O  1245  1  0.38986600  0.12768300  0.60171600  1
  O  1246  1  0.47482500  0.18900700  0.60196200  1
  O  1247  1  0.38948200  0.10020700  0.63058000  1
  O  1248  1  0.47509400  0.14968800  0.59545400  1
  O  1269  1  0.93075100  0.19261000  0.60176500  1
  O  1270  1  0.84602600  0.13111800  0.60199300  1
  O  1271  1  0.93105900  0.22012200  0.63059400  1
  O  1272  1  0.84563200  0.17044400  0.59553200  1
  O  1293  1  0.60170400  0.38992400  0.12738200  1
  O  1294  1  0.60201200  0.47473100  0.18895100  1
  O  1295  1  0.63052400  0.38969800  0.09985640  1
  O  1296  1  0.59545000  0.47509200  0.14964300  1
  O  1317  1  0.60175500  0.93068300  0.19291400  1
  O  1318  1  0.60204300  0.84610800  0.13117900  1
  O  1319  1  0.63054500  0.93083300  0.22047100  1
  O  1320  1  0.59552800  0.84562400  0.17049400  1
  O  1341  1  0.60177000  0.12734100  0.93079800  1
  O  1342  1  0.60205900  0.18885700  0.84606900  1
  O  1343  1  0.63054300  0.09976840  0.93103000  1
  O  1344  1  0.59554100  0.14954200  0.84565500  1
  O  1365  1  0.60164600  0.19297400  0.39000000  1
  O  1366  1  0.60203200  0.13116500  0.47464600  1
  O  1367  1  0.63042200  0.22054600  0.38987000  1
  O  1368  1  0.59541500  0.17046300  0.47512000  1
  O  1389  1  0.12758900  0.38975300  0.71838800  1
  O  1390  1  0.18897500  0.47463000  0.71840700  1
  O  1391  1  0.10012900  0.38942500  0.68950600  1
  O  1392  1  0.14965300  0.47491500  0.72489600  1
  O  1413  1  0.19263400  0.93090300  0.71855800  1
  O  1414  1  0.13114500  0.84613900  0.71853400  1
  O  1415  1  0.22013400  0.93112900  0.68971400  1
  O  1416  1  0.17046800  0.84579600  0.72501100  1
  O  1437  1  0.38999100  0.60165500  0.19296000  1
  O  1438  1  0.47464400  0.60202600  0.13116300  1
  O  1439  1  0.38985200  0.63043600  0.22052700  1
  O  1440  1  0.47511200  0.59541300  0.17046300  1
  O  1461  1  0.93079000  0.60176800  0.12732000  1
  O  1462  1  0.84607100  0.60205900  0.18885100  1
  O  1463  1  0.93101200  0.63053900  0.09974740  1
  O  1464  1  0.84565100  0.59553900  0.14953600  1
  O  1929  1  0.28341300  0.75778800  0.54592000  1
  O  1930  1  0.34491300  0.75800200  0.63071600  1
  O  1931  1  0.25590600  0.78662500  0.54569400  1
  O  1932  1  0.30559000  0.75152200  0.63107300  1
  O  1953  1  0.34894700  0.75780300  0.08667980  1
  O  1954  1  0.28715100  0.75819500  0.00208583  1
  O  1955  1  0.37652400  0.78657400  0.08683380  1
  O  1956  1  0.32645100  0.75159400  0.00159983  1
  O  1977  1  0.54593400  0.28375100  0.75778400  1
  O  1978  1  0.63089300  0.34507500  0.75803000  1
  O  1979  1  0.54555000  0.25627500  0.78664800  1
  O  1980  1  0.63116200  0.30575600  0.75152200  1
  O  2001  1  0.08681880  0.34867800  0.75783300  1
  O  2002  1  0.00209383  0.28718600  0.75806100  1
  O  2003  1  0.08712680  0.37619000  0.78666200  1
  O  2004  1  0.00169983  0.32651200  0.75160000  1
  O  2025  1  0.75777200  0.54599200  0.28345000  1
  O  2026  1  0.75808000  0.63079900  0.34501900  1
  O  2027  1  0.78659200  0.54576600  0.25592400  1
  O  2028  1  0.75151800  0.63116000  0.30571100  1
  O  2049  1  0.75782300  0.08675080  0.34898200  1
  O  2050  1  0.75811100  0.00217583  0.28724700  1
  O  2051  1  0.78661300  0.08690080  0.37653900  1
  O  2052  1  0.75159600  0.00169183  0.32656200  1
  O  2073  1  0.75783800  0.28340900  0.08686580  1
  O  2074  1  0.75812700  0.34492500  0.00213683  1
  O  2075  1  0.78661100  0.25583600  0.08709780  1
  O  2076  1  0.75160900  0.30561000  0.00172283  1
  O  2097  1  0.75771400  0.34904200  0.54606800  1
  O  2098  1  0.75810000  0.28723300  0.63071400  1
  O  2099  1  0.78649000  0.37661400  0.54593800  1
  O  2100  1  0.75148300  0.32653100  0.63118800  1
  O  2121  1  0.28365700  0.54582100  0.87445600  1
  O  2122  1  0.34504300  0.63069800  0.87447500  1
  O  2123  1  0.25619700  0.54549300  0.84557400  1
  O  2124  1  0.30572100  0.63098300  0.88096400  1
  O  2145  1  0.34870200  0.08697080  0.87462600  1
  O  2146  1  0.28721300  0.00220683  0.87460200  1
  O  2147  1  0.37620200  0.08719680  0.84578200  1
  O  2148  1  0.32653600  0.00186383  0.88107900  1
  O  2169  1  0.54605900  0.75772300  0.34902800  1
  O  2170  1  0.63071200  0.75809400  0.28723100  1
  O  2171  1  0.54592000  0.78650400  0.37659500  1
  O  2172  1  0.63118000  0.75148100  0.32653100  1
  O  2193  1  0.08685780  0.75783600  0.28338800  1
  O  2194  1  0.00213883  0.75812700  0.34491900  1
  O  2195  1  0.08707980  0.78660700  0.25581500  1
  O  2196  1  0.00171883  0.75160700  0.30560400  1
