# generated using pymatgen
data_H28C53(NO)8
_symmetry_space_group_name_H-M   'P 1'
_cell_length_a   32.02820000
_cell_length_b   43.52700000
_cell_length_c   43.52700000
_cell_angle_alpha   90.00000000
_cell_angle_beta   90.00000000
_cell_angle_gamma   90.00000000
_symmetry_Int_Tables_number   1
_chemical_formula_structural   H28C53(NO)8
_chemical_formula_sum   'H224 C424 N64 O64'
_cell_volume   60680.61904036
_cell_formula_units_Z   8
loop_
 _symmetry_equiv_pos_site_id
 _symmetry_equiv_pos_as_xyz
  1  'x, y, z'
loop_
 _atom_site_type_symbol
 _atom_site_label
 _atom_site_symmetry_multiplicity
 _atom_site_fract_x
 _atom_site_fract_y
 _atom_site_fract_z
 _atom_site_occupancy
  H  25  1  0.13730200  0.04127800  0.38751100  1
  H  26  1  0.10196500  0.07023400  0.34882000  1
  H  27  1  0.05790600  0.09159600  0.30626000  1
  H  28  1  0.01027600  0.10260500  0.26527400  1
  H  29  1  0.94874400  0.01770300  0.28083000  1
  H  30  1  0.04976200  0.96881000  0.37691100  1
  H  31  1  0.06111400  0.97896700  0.28392500  1
  H  32  1  0.00171500  0.89278400  0.27121800  1
  H  33  1  0.95058700  0.90610200  0.30922400  1
  H  34  1  0.95560100  0.03154600  0.37550300  1
  H  35  1  0.90449600  0.92912200  0.34982700  1
  H  36  1  0.86874900  0.95897700  0.38783300  1
  H  42  1  0.10846200  0.96367800  0.41359400  1
  H  43  1  0.93582800  0.04989400  0.23287600  1
  H  44  1  0.90464600  0.02902500  0.42138000  1
  H  45  1  0.09499500  0.93423600  0.25434600  1
  H  70  1  0.63719700  0.95856600  0.61208200  1
  H  71  1  0.60197200  0.92959800  0.65081700  1
  H  72  1  0.55806700  0.90823900  0.69345700  1
  H  73  1  0.51050600  0.89718300  0.73446600  1
  H  74  1  0.44883200  0.98204100  0.71897200  1
  H  75  1  0.54966800  0.03102100  0.62282300  1
  H  76  1  0.56113600  0.02084900  0.71582500  1
  H  77  1  0.50167900  0.10700600  0.72856400  1
  H  78  1  0.45052800  0.09366700  0.69058100  1
  H  79  1  0.45562900  0.96824500  0.62426100  1
  H  80  1  0.40443700  0.07063200  0.64998100  1
  H  81  1  0.36871500  0.04077600  0.61196000  1
  H  87  1  0.60815400  0.03612900  0.58596300  1
  H  88  1  0.43595900  0.94982400  0.76689400  1
  H  89  1  0.40466200  0.97074900  0.57839500  1
  H  90  1  0.59499700  0.06559900  0.74540900  1
  H  115  1  0.38710900  0.61203200  0.04121500  1
  H  116  1  0.35188300  0.65076400  0.07018500  1
  H  117  1  0.30791900  0.69335600  0.09158400  1
  H  118  1  0.26036200  0.73437000  0.10263700  1
  H  119  1  0.19878000  0.71895100  0.01772800  1
  H  120  1  0.29961000  0.62280200  0.96874400  1
  H  121  1  0.31109600  0.71577000  0.97884300  1
  H  122  1  0.25151900  0.72848400  0.89272600  1
  H  123  1  0.20036000  0.69053200  0.90612700  1
  H  124  1  0.20559100  0.62427900  0.03157800  1
  H  125  1  0.15426500  0.64997100  0.92922100  1
  H  126  1  0.11855900  0.61198100  0.95912200  1
  H  132  1  0.35805600  0.58590800  0.96365500  1
  H  133  1  0.18582100  0.76681600  0.04996000  1
  H  134  1  0.15461500  0.57846200  0.02916800  1
  H  135  1  0.34489900  0.74536300  0.93413300  1
  H  160  1  0.88721400  0.38756900  0.95850400  1
  H  161  1  0.85190200  0.34887300  0.92953600  1
  H  162  1  0.80795600  0.30622800  0.90821100  1
  H  163  1  0.76035400  0.26522400  0.89719900  1
  H  164  1  0.69874300  0.28080300  0.98206400  1
  H  165  1  0.79970700  0.37689700  0.03098100  1
  H  166  1  0.81107500  0.28392700  0.02084200  1
  H  167  1  0.75161800  0.27124500  0.10700900  1
  H  168  1  0.70048500  0.30923300  0.09365500  1
  H  169  1  0.70560300  0.37550500  0.96821100  1
  H  170  1  0.65439800  0.34981700  0.07060500  1
  H  171  1  0.61869200  0.38784000  0.04074300  1
  H  177  1  0.85827100  0.41368300  0.03608400  1
  H  178  1  0.68578900  0.23288500  0.94987700  1
  H  179  1  0.65465700  0.42137800  0.97070100  1
  H  180  1  0.84495800  0.25441200  0.06567400  1
  H  187  1  0.91561700  0.07218500  0.18266900  1
  H  194  1  0.88810100  0.22472700  0.10008800  1
  H  195  1  0.77131000  0.18302400  0.11558800  1
  H  196  1  0.91780900  0.15093700  0.23892300  1
  H  197  1  0.80359100  0.14574800  0.14826400  1
  H  198  1  0.88637100  0.18036700  0.19880400  1
  H  213  1  0.41549900  0.92756500  0.81704000  1
  H  220  1  0.38819200  0.77506600  0.89981600  1
  H  221  1  0.27134600  0.81653900  0.88388800  1
  H  222  1  0.41846200  0.84869900  0.76096000  1
  H  223  1  0.30369200  0.85380600  0.85124400  1
  H  224  1  0.38692100  0.81926400  0.80103400  1
  H  239  1  0.16544000  0.81699900  0.07216300  1
  H  246  1  0.13825300  0.89991500  0.22463800  1
  H  247  1  0.02144900  0.88406700  0.18309600  1
  H  248  1  0.16846300  0.76102000  0.15110100  1
  H  249  1  0.05376300  0.85136600  0.14588300  1
  H  250  1  0.13697200  0.80114200  0.18050000  1
  H  265  1  0.66563800  0.18264400  0.92761500  1
  H  272  1  0.63818100  0.10001100  0.77509800  1
  H  273  1  0.52137800  0.11556900  0.81674600  1
  H  274  1  0.66788000  0.23884700  0.84882700  1
  H  275  1  0.55362700  0.14824900  0.85400100  1
  H  276  1  0.63643600  0.19871400  0.81942000  1
  H  291  1  0.77111400  0.00429800  0.40661700  1
  H  298  1  0.65461300  0.05678800  0.54524100  1
  H  299  1  0.70207400  0.96693100  0.55414100  1
  H  300  1  0.86291700  0.03506400  0.46864000  1
  H  301  1  0.75067900  0.97650400  0.51367400  1
  H  302  1  0.81111300  0.04010400  0.50790300  1
  H  317  1  0.27119500  0.99553400  0.59316100  1
  H  324  1  0.15504900  0.94301700  0.45421700  1
  H  325  1  0.20162500  0.03318500  0.44593500  1
  H  326  1  0.36290200  0.96466600  0.53112300  1
  H  327  1  0.25022600  0.02362600  0.48641100  1
  H  328  1  0.31106000  0.95977000  0.49182600  1
  H  343  1  0.02108300  0.59307800  0.00451600  1
  H  350  1  0.90474900  0.45435200  0.05675500  1
  H  351  1  0.95207000  0.44559900  0.96684400  1
  H  352  1  0.11301600  0.53107000  0.03509700  1
  H  353  1  0.00069700  0.48604300  0.97644500  1
  H  354  1  0.06127400  0.49173600  0.04002400  1
  H  369  1  0.52110300  0.40669500  0.99543000  1
  H  376  1  0.40452100  0.54520000  0.94298000  1
  H  377  1  0.45217300  0.55422800  0.03277200  1
  H  378  1  0.61297800  0.46864900  0.96463600  1
  H  379  1  0.50082100  0.51379600  0.02317800  1
  H  380  1  0.56120800  0.50794000  0.95959300  1
  H  413  1  0.13730200  0.50076300  0.41048500  1
  H  414  1  0.10196500  0.52971900  0.37179400  1
  H  415  1  0.05790600  0.55108100  0.32923400  1
  H  416  1  0.01027600  0.56209000  0.28824800  1
  H  417  1  0.94874400  0.47718800  0.30380400  1
  H  418  1  0.04976200  0.42829500  0.39988500  1
  H  419  1  0.06111400  0.43845200  0.30689900  1
  H  420  1  0.00171500  0.35226900  0.29419200  1
  H  421  1  0.95058700  0.36558700  0.33219800  1
  H  422  1  0.95560100  0.49103100  0.39847700  1
  H  423  1  0.90449600  0.38860700  0.37280100  1
  H  424  1  0.86874900  0.41846200  0.41080700  1
  H  430  1  0.10846200  0.42316300  0.43656800  1
  H  431  1  0.93582800  0.50937900  0.25585000  1
  H  432  1  0.90464600  0.48851000  0.44435400  1
  H  433  1  0.09499500  0.39372100  0.27732000  1
  H  458  1  0.63719700  0.41805100  0.63505600  1
  H  459  1  0.60197200  0.38908300  0.67379100  1
  H  460  1  0.55806700  0.36772400  0.71643100  1
  H  461  1  0.51050600  0.35666800  0.75744000  1
  H  462  1  0.44883200  0.44152600  0.74194600  1
  H  463  1  0.54966800  0.49050600  0.64579700  1
  H  464  1  0.56113600  0.48033400  0.73879900  1
  H  465  1  0.50167900  0.56649100  0.75153800  1
  H  466  1  0.45052800  0.55315200  0.71355500  1
  H  467  1  0.45562900  0.42773000  0.64723500  1
  H  468  1  0.40443700  0.53011700  0.67295500  1
  H  469  1  0.36871500  0.50026100  0.63493400  1
  H  475  1  0.60815400  0.49561400  0.60893700  1
  H  476  1  0.43595900  0.40930900  0.78986800  1
  H  477  1  0.40466200  0.43023400  0.60136900  1
  H  478  1  0.59499700  0.52508400  0.76838300  1
  H  503  1  0.38710900  0.07151690  0.06418920  1
  H  504  1  0.35188300  0.11024900  0.09315920  1
  H  505  1  0.30791900  0.15284100  0.11455800  1
  H  506  1  0.26036200  0.19385500  0.12561100  1
  H  507  1  0.19878000  0.17843600  0.04070220  1
  H  508  1  0.29961000  0.08228690  0.99171800  1
  H  509  1  0.31109600  0.17525500  0.00181725  1
  H  510  1  0.25151900  0.18796900  0.91570000  1
  H  511  1  0.20036000  0.15001700  0.92910100  1
  H  512  1  0.20559100  0.08376390  0.05455220  1
  H  513  1  0.15426500  0.10945600  0.95219500  1
  H  514  1  0.11855900  0.07146590  0.98209600  1
  H  520  1  0.35805600  0.04539290  0.98662900  1
  H  521  1  0.18582100  0.22630100  0.07293420  1
  H  522  1  0.15461500  0.03794690  0.05214220  1
  H  523  1  0.34489900  0.20484800  0.95710700  1
  H  548  1  0.88721400  0.84705400  0.98147800  1
  H  549  1  0.85190200  0.80835800  0.95251000  1
  H  550  1  0.80795600  0.76571300  0.93118500  1
  H  551  1  0.76035400  0.72470900  0.92017300  1
  H  552  1  0.69874300  0.74028800  0.00503825  1
  H  553  1  0.79970700  0.83638200  0.05395520  1
  H  554  1  0.81107500  0.74341200  0.04381620  1
  H  555  1  0.75161800  0.73073000  0.12998300  1
  H  556  1  0.70048500  0.76871800  0.11662900  1
  H  557  1  0.70560300  0.83499000  0.99118500  1
  H  558  1  0.65439800  0.80930200  0.09357920  1
  H  559  1  0.61869200  0.84732500  0.06371720  1
  H  565  1  0.85827100  0.87316800  0.05905820  1
  H  566  1  0.68578900  0.69237000  0.97285100  1
  H  567  1  0.65465700  0.88086300  0.99367500  1
  H  568  1  0.84495800  0.71389700  0.08864820  1
  H  575  1  0.91561700  0.53167000  0.20564300  1
  H  582  1  0.88810100  0.68421200  0.12306200  1
  H  583  1  0.77131000  0.64250900  0.13856200  1
  H  584  1  0.91780900  0.61042200  0.26189700  1
  H  585  1  0.80359100  0.60523300  0.17123800  1
  H  586  1  0.88637100  0.63985200  0.22177800  1
  H  601  1  0.41549900  0.38705000  0.84001400  1
  H  608  1  0.38819200  0.23455100  0.92279000  1
  H  609  1  0.27134600  0.27602400  0.90686200  1
  H  610  1  0.41846200  0.30818400  0.78393400  1
  H  611  1  0.30369200  0.31329100  0.87421800  1
  H  612  1  0.38692100  0.27874900  0.82400800  1
  H  627  1  0.16544000  0.27648400  0.09513720  1
  H  634  1  0.13825300  0.35940000  0.24761200  1
  H  635  1  0.02144900  0.34355200  0.20607000  1
  H  636  1  0.16846300  0.22050500  0.17407500  1
  H  637  1  0.05376300  0.31085100  0.16885700  1
  H  638  1  0.13697200  0.26062700  0.20347400  1
  H  653  1  0.66563800  0.64212900  0.95058900  1
  H  660  1  0.63818100  0.55949600  0.79807200  1
  H  661  1  0.52137800  0.57505400  0.83972000  1
  H  662  1  0.66788000  0.69833200  0.87180100  1
  H  663  1  0.55362700  0.60773400  0.87697500  1
  H  664  1  0.63643600  0.65819900  0.84239400  1
  H  679  1  0.77111400  0.46378300  0.42959100  1
  H  686  1  0.65461300  0.51627300  0.56821500  1
  H  687  1  0.70207400  0.42641600  0.57711500  1
  H  688  1  0.86291700  0.49454900  0.49161400  1
  H  689  1  0.75067900  0.43598900  0.53664800  1
  H  690  1  0.81111300  0.49958900  0.53087700  1
  H  705  1  0.27119500  0.45501900  0.61613500  1
  H  712  1  0.15504900  0.40250200  0.47719100  1
  H  713  1  0.20162500  0.49267000  0.46890900  1
  H  714  1  0.36290200  0.42415100  0.55409700  1
  H  715  1  0.25022600  0.48311100  0.50938500  1
  H  716  1  0.31106000  0.41925500  0.51480000  1
  H  731  1  0.02108300  0.05256290  0.02749020  1
  H  738  1  0.90474900  0.91383700  0.07972920  1
  H  739  1  0.95207000  0.90508400  0.98981800  1
  H  740  1  0.11301600  0.99055500  0.05807120  1
  H  741  1  0.00069700  0.94552800  0.99941900  1
  H  742  1  0.06127400  0.95122100  0.06299820  1
  H  757  1  0.52110300  0.86618000  0.01840420  1
  H  764  1  0.40452100  0.00468492  0.96595400  1
  H  765  1  0.45217300  0.01371290  0.05574620  1
  H  766  1  0.61297800  0.92813400  0.98761000  1
  H  767  1  0.50082100  0.97328100  0.04615220  1
  H  768  1  0.56120800  0.96742500  0.98256700  1
  C  1  1  0.96532400  0.99228500  0.34795400  1
  C  2  1  0.95052100  0.96292200  0.34068700  1
  C  3  1  0.97628000  0.95002600  0.31856300  1
  C  4  1  0.00804900  0.97091000  0.31150600  1
  C  5  1  0.03818600  0.96340700  0.28905300  1
  C  6  1  0.03600900  0.93479700  0.27351300  1
  C  7  1  0.00372100  0.91387000  0.28153300  1
  C  8  1  0.97375700  0.92134800  0.30390300  1
  C  9  1  0.91497400  0.95068400  0.35503500  1
  C  10  1  0.89414300  0.96848200  0.37717100  1
  C  11  1  0.90814300  0.99849300  0.38498200  1
  C  12  1  0.94434200  0.01018700  0.37020200  1
  C  13  1  0.04043200  0.00745900  0.34856300  1
  C  14  1  0.05544200  0.03657800  0.34064400  1
  C  15  1  0.03070200  0.04861100  0.31743300  1
  C  16  1  0.99934000  0.02741900  0.31030600  1
  C  17  1  0.03455400  0.07638500  0.30128200  1
  C  18  1  0.00640500  0.08260300  0.27731300  1
  C  19  1  0.97426900  0.06149100  0.26938700  1
  C  20  1  0.97104700  0.03366100  0.28621500  1
  C  21  1  0.06106200  0.99010500  0.37141500  1
  C  22  1  0.09702700  0.00207700  0.38636300  1
  C  23  1  0.11140800  0.03175900  0.37756100  1
  C  24  1  0.09091200  0.04904900  0.35486500  1
  C  37  1  0.00327500  0.99952700  0.32972600  1
  C  38  1  0.94776100  0.06729000  0.24478600  1
  C  39  1  0.11753000  0.98501400  0.40896700  1
  C  40  1  0.88810700  0.01524400  0.40784100  1
  C  41  1  0.06579700  0.92695600  0.25174300  1
  C  46  1  0.46530800  0.00749300  0.65183500  1
  C  47  1  0.45048100  0.03684700  0.65911500  1
  C  48  1  0.47623600  0.04975000  0.68123500  1
  C  49  1  0.50803900  0.02888300  0.68827200  1
  C  50  1  0.53819100  0.03639900  0.71070800  1
  C  51  1  0.53600500  0.06501000  0.72624800  1
  C  52  1  0.50369300  0.08592100  0.71824600  1
  C  53  1  0.47371000  0.07842900  0.69589200  1
  C  54  1  0.41492200  0.04907300  0.64477000  1
  C  55  1  0.39410600  0.03127300  0.62263000  1
  C  56  1  0.40814300  0.00127600  0.61479500  1
  C  57  1  0.44434900  0.98959300  0.62957200  1
  C  58  1  0.54043300  0.99237000  0.65118400  1
  C  59  1  0.55549800  0.96326400  0.65909400  1
  C  60  1  0.53077600  0.95119600  0.68229800  1
  C  61  1  0.49939700  0.97236400  0.68945300  1
  C  62  1  0.53466900  0.92341300  0.69842900  1
  C  63  1  0.50656300  0.91717100  0.72241600  1
  C  64  1  0.47441300  0.93826100  0.73037700  1
  C  65  1  0.47112800  0.96609000  0.71355300  1
  C  66  1  0.56099900  0.00973200  0.62830900  1
  C  67  1  0.59693900  0.99777600  0.61331800  1
  C  68  1  0.61134500  0.96808900  0.62208500  1
  C  69  1  0.59091600  0.95079400  0.64480900  1
  C  82  1  0.50328400  0.00026800  0.67004400  1
  C  83  1  0.44796400  0.93244000  0.75501000  1
  C  84  1  0.61737400  0.01484600  0.59068200  1
  C  85  1  0.38811700  0.98452200  0.59193600  1
  C  86  1  0.56578800  0.07285400  0.74802100  1
  C  91  1  0.21524000  0.65182300  0.99230600  1
  C  92  1  0.20037600  0.65909700  0.96296100  1
  C  93  1  0.22613700  0.68119100  0.95002400  1
  C  94  1  0.25797000  0.68823000  0.97086600  1
  C  95  1  0.28813200  0.71064900  0.96331000  1
  C  96  1  0.28591200  0.72617700  0.93469600  1
  C  97  1  0.25355900  0.71818000  0.91381400  1
  C  98  1  0.22357300  0.69583900  0.92134300  1
  C  99  1  0.16479400  0.64475600  0.95076600  1
  C  100  1  0.14398200  0.62263400  0.96859400  1
  C  101  1  0.15804800  0.61481600  0.99858700  1
  C  102  1  0.19428100  0.62958400  0.01023600  1
  C  103  1  0.29037500  0.65116100  0.00739800  1
  C  104  1  0.30540500  0.65903900  0.03652200  1
  C  105  1  0.28072000  0.68227100  0.04857400  1
  C  106  1  0.24939000  0.68946600  0.02738100  1
  C  107  1  0.28459600  0.69838700  0.07636600  1
  C  108  1  0.25647300  0.72236300  0.08261700  1
  C  109  1  0.22433100  0.73033300  0.06152400  1
  C  110  1  0.22108900  0.71353900  0.03367300  1
  C  111  1  0.31093300  0.62827700  0.99003800  1
  C  112  1  0.34686300  0.61327500  0.00200000  1
  C  113  1  0.36125900  0.62203500  0.03169000  1
  C  114  1  0.34083400  0.64475800  0.04898800  1
  C  127  1  0.25323300  0.67002800  0.99949700  1
  C  128  1  0.19787300  0.75495900  0.06734700  1
  C  129  1  0.36730400  0.59064700  0.98492400  1
  C  130  1  0.13804900  0.59195200  0.01535800  1
  C  131  1  0.31571500  0.74792000  0.92680200  1
  C  136  1  0.71528200  0.34795000  0.00747200  1
  C  137  1  0.70045400  0.34067800  0.03682700  1
  C  138  1  0.72619100  0.31854900  0.04973000  1
  C  139  1  0.75798500  0.31149400  0.02886200  1
  C  140  1  0.78812700  0.28905000  0.03638700  1
  C  141  1  0.78593500  0.27352200  0.06500400  1
  C  142  1  0.75362600  0.28154500  0.08591300  1
  C  143  1  0.72366200  0.30390600  0.07841600  1
  C  144  1  0.66490100  0.35503000  0.04905100  1
  C  145  1  0.64409100  0.37717500  0.03124800  1
  C  146  1  0.65812900  0.38499600  0.00124900  1
  C  147  1  0.69432200  0.37020500  0.98956500  1
  C  148  1  0.79040000  0.34855100  0.99232900  1
  C  149  1  0.80543300  0.34063000  0.96321600  1
  C  150  1  0.78065500  0.31745800  0.95114800  1
  C  151  1  0.74931400  0.31030400  0.97234600  1
  C  152  1  0.78457400  0.30126400  0.92340400  1
  C  153  1  0.75644500  0.27728300  0.91718500  1
  C  154  1  0.72428600  0.26936400  0.93828000  1
  C  155  1  0.72103000  0.28620900  0.96609900  1
  C  156  1  0.81101900  0.37140400  0.00968700  1
  C  157  1  0.84697200  0.38636700  0.99772100  1
  C  158  1  0.86134300  0.37759300  0.96802900  1
  C  159  1  0.84086500  0.35489200  0.95073400  1
  C  172  1  0.75323600  0.32971500  0.00024400  1
  C  173  1  0.69780300  0.24474900  0.93248100  1
  C  174  1  0.86745700  0.40897800  0.01479100  1
  C  175  1  0.63810600  0.40785300  0.98448600  1
  C  176  1  0.81573100  0.25176800  0.07287500  1
  C  181  1  0.91838700  0.10868600  0.21469000  1
  C  182  1  0.90996000  0.14015300  0.21881800  1
  C  183  1  0.89174200  0.15745000  0.19517000  1
  C  184  1  0.88212800  0.14373700  0.16661000  1
  C  185  1  0.89011800  0.11199500  0.16210500  1
  C  186  1  0.90833300  0.09476500  0.18630300  1
  C  188  1  0.86538400  0.16273900  0.14316500  1
  C  189  1  0.89007100  0.18565100  0.12870100  1
  C  190  1  0.87055400  0.20731400  0.10912600  1
  C  191  1  0.82697700  0.20670800  0.10411500  1
  C  192  1  0.80311000  0.18335900  0.11805400  1
  C  193  1  0.82207200  0.16147500  0.13724100  1
  C  207  1  0.41877100  0.89097800  0.78513800  1
  C  208  1  0.41047900  0.85949200  0.78103000  1
  C  209  1  0.39218800  0.84219500  0.80465000  1
  C  210  1  0.38233500  0.85594000  0.83315000  1
  C  211  1  0.39010900  0.88771800  0.83761100  1
  C  212  1  0.40839300  0.90494900  0.81344000  1
  C  214  1  0.36551200  0.83694000  0.85656700  1
  C  215  1  0.39019000  0.81409200  0.87114200  1
  C  216  1  0.37062600  0.79241400  0.89067500  1
  C  217  1  0.32703300  0.79298100  0.89558900  1
  C  218  1  0.30315700  0.81623800  0.88150300  1
  C  219  1  0.32216000  0.83813000  0.86235000  1
  C  233  1  0.16873600  0.78514300  0.10878700  1
  C  234  1  0.16045900  0.78107400  0.14028200  1
  C  235  1  0.14222800  0.80472800  0.15756200  1
  C  236  1  0.13236500  0.83321200  0.14378500  1
  C  237  1  0.14010700  0.83762700  0.11199600  1
  C  238  1  0.15837300  0.81343100  0.09479100  1
  C  240  1  0.11558900  0.85666800  0.16276200  1
  C  241  1  0.14025900  0.87120900  0.18563400  1
  C  242  1  0.12069300  0.89075500  0.20729600  1
  C  243  1  0.07712000  0.89576800  0.20667300  1
  C  244  1  0.05325700  0.88166400  0.18341600  1
  C  245  1  0.07225300  0.86250100  0.16152500  1
  C  259  1  0.66842000  0.21464700  0.89109800  1
  C  260  1  0.66000200  0.21875600  0.85962700  1
  C  261  1  0.64177500  0.19510200  0.84234400  1
  C  262  1  0.63216100  0.16655000  0.85607100  1
  C  263  1  0.64012600  0.16206700  0.88782100  1
  C  264  1  0.65832600  0.18627900  0.90504100  1
  C  266  1  0.61545100  0.14307900  0.83708000  1
  C  267  1  0.64014500  0.12862000  0.81417300  1
  C  268  1  0.62063400  0.10903500  0.79251700  1
  C  269  1  0.57706900  0.10397600  0.79314000  1
  C  270  1  0.55318700  0.11796600  0.81645600  1
  C  271  1  0.57213900  0.13715900  0.83834200  1
  C  285  1  0.82134400  0.02033600  0.43364400  1
  C  286  1  0.83231900  0.03135800  0.46306900  1
  C  287  1  0.80185200  0.03413500  0.48618800  1
  C  288  1  0.75985200  0.02610900  0.48030200  1
  C  289  1  0.74817800  0.01591000  0.45056900  1
  C  290  1  0.77918100  0.01330100  0.42753900  1
  C  292  1  0.73204200  0.02267100  0.50543100  1
  C  293  1  0.70384500  0.04607000  0.51460000  1
  C  294  1  0.67510500  0.04001500  0.53868600  1
  C  295  1  0.67402400  0.01106500  0.55335300  1
  C  296  1  0.70234900  0.98816600  0.54398900  1
  C  297  1  0.73097700  0.99383400  0.52028200  1
  C  311  1  0.32137300  0.97936900  0.56614100  1
  C  312  1  0.33231900  0.96847700  0.53666500  1
  C  313  1  0.30184300  0.96574500  0.51354800  1
  C  314  1  0.25987800  0.97384400  0.51945200  1
  C  315  1  0.24822500  0.98403500  0.54919500  1
  C  316  1  0.27924200  0.98654900  0.57222600  1
  C  318  1  0.23201700  0.97731500  0.49435500  1
  C  319  1  0.20408600  0.95381700  0.48499600  1
  C  320  1  0.17533500  0.95986600  0.46091600  1
  C  321  1  0.17400500  0.98889900  0.44642400  1
  C  322  1  0.20206800  0.01189600  0.45597200  1
  C  323  1  0.23069500  0.00623700  0.47968200  1
  C  337  1  0.07137300  0.56609000  0.02055300  1
  C  338  1  0.08240800  0.53662100  0.03141200  1
  C  339  1  0.05199400  0.51345400  0.03407900  1
  C  340  1  0.00997200  0.51931400  0.02610400  1
  C  341  1  0.99824500  0.54907300  0.01599800  1
  C  342  1  0.02921400  0.57213500  0.01344100  1
  C  344  1  0.98214900  0.49419900  0.02264800  1
  C  345  1  0.95396800  0.48500500  0.04604700  1
  C  346  1  0.92520300  0.46093900  0.03997200  1
  C  347  1  0.92409100  0.44631400  0.01100200  1
  C  348  1  0.95237200  0.45571900  0.98809200  1
  C  349  1  0.98102800  0.47940400  0.99378300  1
  C  363  1  0.57136800  0.43367800  0.97936700  1
  C  364  1  0.58237400  0.46309200  0.96833500  1
  C  365  1  0.55192900  0.48622200  0.96553400  1
  C  366  1  0.50993100  0.48038200  0.97360000  1
  C  367  1  0.49822300  0.45064900  0.98379400  1
  C  368  1  0.52919600  0.42759200  0.98637900  1
  C  370  1  0.48211500  0.50550700  0.97703300  1
  C  371  1  0.45383400  0.51461900  0.95366600  1
  C  372  1  0.42506900  0.53868600  0.95973300  1
  C  373  1  0.42403800  0.55338300  0.98866700  1
  C  374  1  0.45243200  0.54406700  0.01154000  1
  C  375  1  0.48108800  0.52038300  0.00585900  1
  C  389  1  0.96532400  0.45177000  0.37092800  1
  C  390  1  0.95052100  0.42240700  0.36366100  1
  C  391  1  0.97628000  0.40951100  0.34153700  1
  C  392  1  0.00804900  0.43039500  0.33448000  1
  C  393  1  0.03818600  0.42289200  0.31202700  1
  C  394  1  0.03600900  0.39428200  0.29648700  1
  C  395  1  0.00372100  0.37335500  0.30450700  1
  C  396  1  0.97375700  0.38083300  0.32687700  1
  C  397  1  0.91497400  0.41016900  0.37800900  1
  C  398  1  0.89414300  0.42796700  0.40014500  1
  C  399  1  0.90814300  0.45797800  0.40795600  1
  C  400  1  0.94434200  0.46967200  0.39317600  1
  C  401  1  0.04043200  0.46694400  0.37153700  1
  C  402  1  0.05544200  0.49606300  0.36361800  1
  C  403  1  0.03070200  0.50809600  0.34040700  1
  C  404  1  0.99934000  0.48690400  0.33328000  1
  C  405  1  0.03455400  0.53587000  0.32425600  1
  C  406  1  0.00640500  0.54208800  0.30028700  1
  C  407  1  0.97426900  0.52097600  0.29236100  1
  C  408  1  0.97104700  0.49314600  0.30918900  1
  C  409  1  0.06106200  0.44959000  0.39438900  1
  C  410  1  0.09702700  0.46156200  0.40933700  1
  C  411  1  0.11140800  0.49124400  0.40053500  1
  C  412  1  0.09091200  0.50853400  0.37783900  1
  C  425  1  0.00327500  0.45901200  0.35270000  1
  C  426  1  0.94776100  0.52677500  0.26776000  1
  C  427  1  0.11753000  0.44449900  0.43194100  1
  C  428  1  0.88810700  0.47472900  0.43081500  1
  C  429  1  0.06579700  0.38644100  0.27471700  1
  C  434  1  0.46530800  0.46697800  0.67480900  1
  C  435  1  0.45048100  0.49633200  0.68208900  1
  C  436  1  0.47623600  0.50923500  0.70420900  1
  C  437  1  0.50803900  0.48836800  0.71124600  1
  C  438  1  0.53819100  0.49588400  0.73368200  1
  C  439  1  0.53600500  0.52449500  0.74922200  1
  C  440  1  0.50369300  0.54540600  0.74122000  1
  C  441  1  0.47371000  0.53791400  0.71886600  1
  C  442  1  0.41492200  0.50855800  0.66774400  1
  C  443  1  0.39410600  0.49075800  0.64560400  1
  C  444  1  0.40814300  0.46076100  0.63776900  1
  C  445  1  0.44434900  0.44907800  0.65254600  1
  C  446  1  0.54043300  0.45185500  0.67415800  1
  C  447  1  0.55549800  0.42274900  0.68206800  1
  C  448  1  0.53077600  0.41068100  0.70527200  1
  C  449  1  0.49939700  0.43184900  0.71242700  1
  C  450  1  0.53466900  0.38289800  0.72140300  1
  C  451  1  0.50656300  0.37665600  0.74539000  1
  C  452  1  0.47441300  0.39774600  0.75335100  1
  C  453  1  0.47112800  0.42557500  0.73652700  1
  C  454  1  0.56099900  0.46921700  0.65128300  1
  C  455  1  0.59693900  0.45726100  0.63629200  1
  C  456  1  0.61134500  0.42757400  0.64505900  1
  C  457  1  0.59091600  0.41027900  0.66778300  1
  C  470  1  0.50328400  0.45975300  0.69301800  1
  C  471  1  0.44796400  0.39192500  0.77798400  1
  C  472  1  0.61737400  0.47433100  0.61365600  1
  C  473  1  0.38811700  0.44400700  0.61491000  1
  C  474  1  0.56578800  0.53233900  0.77099500  1
  C  479  1  0.21524000  0.11130800  0.01528020  1
  C  480  1  0.20037600  0.11858200  0.98593500  1
  C  481  1  0.22613700  0.14067600  0.97299800  1
  C  482  1  0.25797000  0.14771500  0.99384000  1
  C  483  1  0.28813200  0.17013400  0.98628400  1
  C  484  1  0.28591200  0.18566200  0.95767000  1
  C  485  1  0.25355900  0.17766500  0.93678800  1
  C  486  1  0.22357300  0.15532400  0.94431700  1
  C  487  1  0.16479400  0.10424100  0.97374000  1
  C  488  1  0.14398200  0.08211890  0.99156800  1
  C  489  1  0.15804800  0.07430090  0.02156120  1
  C  490  1  0.19428100  0.08906890  0.03321020  1
  C  491  1  0.29037500  0.11064600  0.03037220  1
  C  492  1  0.30540500  0.11852400  0.05949620  1
  C  493  1  0.28072000  0.14175600  0.07154820  1
  C  494  1  0.24939000  0.14895100  0.05035520  1
  C  495  1  0.28459600  0.15787200  0.09934020  1
  C  496  1  0.25647300  0.18184800  0.10559100  1
  C  497  1  0.22433100  0.18981800  0.08449820  1
  C  498  1  0.22108900  0.17302400  0.05664720  1
  C  499  1  0.31093300  0.08776190  0.01301220  1
  C  500  1  0.34686300  0.07275990  0.02497420  1
  C  501  1  0.36125900  0.08151990  0.05466420  1
  C  502  1  0.34083400  0.10424300  0.07196220  1
  C  515  1  0.25323300  0.12951300  0.02247120  1
  C  516  1  0.19787300  0.21444400  0.09032120  1
  C  517  1  0.36730400  0.05013190  0.00789825  1
  C  518  1  0.13804900  0.05143690  0.03833220  1
  C  519  1  0.31571500  0.20740500  0.94977600  1
  C  524  1  0.71528200  0.80743500  0.03044620  1
  C  525  1  0.70045400  0.80016300  0.05980120  1
  C  526  1  0.72619100  0.77803400  0.07270420  1
  C  527  1  0.75798500  0.77097900  0.05183620  1
  C  528  1  0.78812700  0.74853500  0.05936120  1
  C  529  1  0.78593500  0.73300700  0.08797820  1
  C  530  1  0.75362600  0.74103000  0.10888700  1
  C  531  1  0.72366200  0.76339100  0.10139000  1
  C  532  1  0.66490100  0.81451500  0.07202520  1
  C  533  1  0.64409100  0.83666000  0.05422220  1
  C  534  1  0.65812900  0.84448100  0.02422320  1
  C  535  1  0.69432200  0.82969000  0.01253920  1
  C  536  1  0.79040000  0.80803600  0.01530320  1
  C  537  1  0.80543300  0.80011500  0.98619000  1
  C  538  1  0.78065500  0.77694300  0.97412200  1
  C  539  1  0.74931400  0.76978900  0.99532000  1
  C  540  1  0.78457400  0.76074900  0.94637800  1
  C  541  1  0.75644500  0.73676800  0.94015900  1
  C  542  1  0.72428600  0.72884900  0.96125400  1
  C  543  1  0.72103000  0.74569400  0.98907300  1
  C  544  1  0.81101900  0.83088900  0.03266120  1
  C  545  1  0.84697200  0.84585200  0.02069520  1
  C  546  1  0.86134300  0.83707800  0.99100300  1
  C  547  1  0.84086500  0.81437700  0.97370800  1
  C  560  1  0.75323600  0.78920000  0.02321820  1
  C  561  1  0.69780300  0.70423400  0.95545500  1
  C  562  1  0.86745700  0.86846300  0.03776520  1
  C  563  1  0.63810600  0.86733800  0.00746025  1
  C  564  1  0.81573100  0.71125300  0.09584920  1
  C  569  1  0.91838700  0.56817100  0.23766400  1
  C  570  1  0.90996000  0.59963800  0.24179200  1
  C  571  1  0.89174200  0.61693500  0.21814400  1
  C  572  1  0.88212800  0.60322200  0.18958400  1
  C  573  1  0.89011800  0.57148000  0.18507900  1
  C  574  1  0.90833300  0.55425000  0.20927700  1
  C  576  1  0.86538400  0.62222400  0.16613900  1
  C  577  1  0.89007100  0.64513600  0.15167500  1
  C  578  1  0.87055400  0.66679900  0.13210000  1
  C  579  1  0.82697700  0.66619300  0.12708900  1
  C  580  1  0.80311000  0.64284400  0.14102800  1
  C  581  1  0.82207200  0.62096000  0.16021500  1
  C  595  1  0.41877100  0.35046300  0.80811200  1
  C  596  1  0.41047900  0.31897700  0.80400400  1
  C  597  1  0.39218800  0.30168000  0.82762400  1
  C  598  1  0.38233500  0.31542500  0.85612400  1
  C  599  1  0.39010900  0.34720300  0.86058500  1
  C  600  1  0.40839300  0.36443400  0.83641400  1
  C  602  1  0.36551200  0.29642500  0.87954100  1
  C  603  1  0.39019000  0.27357700  0.89411600  1
  C  604  1  0.37062600  0.25189900  0.91364900  1
  C  605  1  0.32703300  0.25246600  0.91856300  1
  C  606  1  0.30315700  0.27572300  0.90447700  1
  C  607  1  0.32216000  0.29761500  0.88532400  1
  C  621  1  0.16873600  0.24462800  0.13176100  1
  C  622  1  0.16045900  0.24055900  0.16325600  1
  C  623  1  0.14222800  0.26421300  0.18053600  1
  C  624  1  0.13236500  0.29269700  0.16675900  1
  C  625  1  0.14010700  0.29711200  0.13497000  1
  C  626  1  0.15837300  0.27291600  0.11776500  1
  C  628  1  0.11558900  0.31615300  0.18573600  1
  C  629  1  0.14025900  0.33069400  0.20860800  1
  C  630  1  0.12069300  0.35024000  0.23027000  1
  C  631  1  0.07712000  0.35525300  0.22964700  1
  C  632  1  0.05325700  0.34114900  0.20639000  1
  C  633  1  0.07225300  0.32198600  0.18449900  1
  C  647  1  0.66842000  0.67413200  0.91407200  1
  C  648  1  0.66000200  0.67824100  0.88260100  1
  C  649  1  0.64177500  0.65458700  0.86531800  1
  C  650  1  0.63216100  0.62603500  0.87904500  1
  C  651  1  0.64012600  0.62155200  0.91079500  1
  C  652  1  0.65832600  0.64576400  0.92801500  1
  C  654  1  0.61545100  0.60256400  0.86005400  1
  C  655  1  0.64014500  0.58810500  0.83714700  1
  C  656  1  0.62063400  0.56852000  0.81549100  1
  C  657  1  0.57706900  0.56346100  0.81611400  1
  C  658  1  0.55318700  0.57745100  0.83943000  1
  C  659  1  0.57213900  0.59664400  0.86131600  1
  C  673  1  0.82134400  0.47982100  0.45661800  1
  C  674  1  0.83231900  0.49084300  0.48604300  1
  C  675  1  0.80185200  0.49362000  0.50916200  1
  C  676  1  0.75985200  0.48559400  0.50327600  1
  C  677  1  0.74817800  0.47539500  0.47354300  1
  C  678  1  0.77918100  0.47278600  0.45051300  1
  C  680  1  0.73204200  0.48215600  0.52840500  1
  C  681  1  0.70384500  0.50555500  0.53757400  1
  C  682  1  0.67510500  0.49950000  0.56166000  1
  C  683  1  0.67402400  0.47055000  0.57632700  1
  C  684  1  0.70234900  0.44765100  0.56696300  1
  C  685  1  0.73097700  0.45331900  0.54325600  1
  C  699  1  0.32137300  0.43885400  0.58911500  1
  C  700  1  0.33231900  0.42796200  0.55963900  1
  C  701  1  0.30184300  0.42523000  0.53652200  1
  C  702  1  0.25987800  0.43332900  0.54242600  1
  C  703  1  0.24822500  0.44352000  0.57216900  1
  C  704  1  0.27924200  0.44603400  0.59520000  1
  C  706  1  0.23201700  0.43680000  0.51732900  1
  C  707  1  0.20408600  0.41330200  0.50797000  1
  C  708  1  0.17533500  0.41935100  0.48389000  1
  C  709  1  0.17400500  0.44838400  0.46939800  1
  C  710  1  0.20206800  0.47138100  0.47894600  1
  C  711  1  0.23069500  0.46572200  0.50265600  1
  C  725  1  0.07137300  0.02557490  0.04352720  1
  C  726  1  0.08240800  0.99610600  0.05438620  1
  C  727  1  0.05199400  0.97293900  0.05705320  1
  C  728  1  0.00997200  0.97879900  0.04907820  1
  C  729  1  0.99824500  0.00855792  0.03897220  1
  C  730  1  0.02921400  0.03161990  0.03641520  1
  C  732  1  0.98214900  0.95368400  0.04562220  1
  C  733  1  0.95396800  0.94449000  0.06902120  1
  C  734  1  0.92520300  0.92042400  0.06294620  1
  C  735  1  0.92409100  0.90579900  0.03397620  1
  C  736  1  0.95237200  0.91520400  0.01106620  1
  C  737  1  0.98102800  0.93888900  0.01675720  1
  C  751  1  0.57136800  0.89316300  0.00234125  1
  C  752  1  0.58237400  0.92257700  0.99130900  1
  C  753  1  0.55192900  0.94570700  0.98850800  1
  C  754  1  0.50993100  0.93986700  0.99657400  1
  C  755  1  0.49822300  0.91013400  0.00676825  1
  C  756  1  0.52919600  0.88707700  0.00935325  1
  C  758  1  0.48211500  0.96499200  0.00000725  1
  C  759  1  0.45383400  0.97410400  0.97664000  1
  C  760  1  0.42506900  0.99817100  0.98270700  1
  C  761  1  0.42403800  0.01286790  0.01164120  1
  C  762  1  0.45243200  0.00355192  0.03451420  1
  C  763  1  0.48108800  0.97986800  0.02883320  1
  N  199  1  0.88120400  0.09856100  0.13322600  1
  N  200  1  0.93347700  0.18698900  0.13482000  1
  N  205  1  0.80612300  0.22934800  0.09074200  1
  N  206  1  0.93970600  0.09508700  0.23688300  1
  N  225  1  0.38091700  0.90119000  0.86642300  1
  N  226  1  0.43363600  0.81282400  0.86516200  1
  N  231  1  0.30614300  0.77032200  0.90890300  1
  N  232  1  0.44001200  0.90463600  0.76294300  1
  N  251  1  0.13091400  0.86642300  0.09848600  1
  N  252  1  0.18369000  0.86518700  0.18693800  1
  N  257  1  0.05621700  0.90907300  0.22932800  1
  N  258  1  0.18996700  0.76292900  0.09514800  1
  N  277  1  0.63122800  0.13319100  0.90126600  1
  N  278  1  0.68354400  0.13475900  0.81282900  1
  N  283  1  0.55618100  0.09069200  0.77046400  1
  N  284  1  0.68976300  0.23683500  0.90468400  1
  N  303  1  0.70633600  0.00694200  0.44497000  1
  N  304  1  0.70493800  0.07475200  0.49933400  1
  N  309  1  0.64790000  0.00316300  0.57552600  1
  N  310  1  0.84901400  0.01105100  0.41300300  1
  N  329  1  0.20641500  0.99307100  0.55480700  1
  N  330  1  0.20543800  0.92504400  0.50008300  1
  N  335  1  0.14789800  0.99678100  0.42423300  1
  N  336  1  0.34901400  0.98869000  0.58678300  1
  N  355  1  0.95639400  0.55466300  0.00704600  1
  N  356  1  0.95511100  0.50022100  0.07475500  1
  N  361  1  0.89795800  0.42414800  0.00308900  1
  N  362  1  0.09895700  0.58675800  0.01119400  1
  N  381  1  0.45638800  0.44508500  0.99279800  1
  N  382  1  0.45488300  0.49932000  0.92500100  1
  N  387  1  0.39788700  0.57553000  0.99658400  1
  N  388  1  0.59901500  0.41303100  0.98866900  1
  N  587  1  0.88120400  0.55804600  0.15620000  1
  N  588  1  0.93347700  0.64647400  0.15779400  1
  N  593  1  0.80612300  0.68883300  0.11371600  1
  N  594  1  0.93970600  0.55457200  0.25985700  1
  N  613  1  0.38091700  0.36067500  0.88939700  1
  N  614  1  0.43363600  0.27230900  0.88813600  1
  N  619  1  0.30614300  0.22980700  0.93187700  1
  N  620  1  0.44001200  0.36412100  0.78591700  1
  N  639  1  0.13091400  0.32590800  0.12146000  1
  N  640  1  0.18369000  0.32467200  0.20991200  1
  N  645  1  0.05621700  0.36855800  0.25230200  1
  N  646  1  0.18996700  0.22241400  0.11812200  1
  N  665  1  0.63122800  0.59267600  0.92424000  1
  N  666  1  0.68354400  0.59424400  0.83580300  1
  N  671  1  0.55618100  0.55017700  0.79343800  1
  N  672  1  0.68976300  0.69632000  0.92765800  1
  N  691  1  0.70633600  0.46642700  0.46794400  1
  N  692  1  0.70493800  0.53423700  0.52230800  1
  N  697  1  0.64790000  0.46264800  0.59850000  1
  N  698  1  0.84901400  0.47053600  0.43597700  1
  N  717  1  0.20641500  0.45255600  0.57778100  1
  N  718  1  0.20543800  0.38452900  0.52305700  1
  N  723  1  0.14789800  0.45626600  0.44720700  1
  N  724  1  0.34901400  0.44817500  0.60975700  1
  N  743  1  0.95639400  0.01414790  0.03002020  1
  N  744  1  0.95511100  0.95970600  0.09772920  1
  N  749  1  0.89795800  0.88363300  0.02606320  1
  N  750  1  0.09895700  0.04624290  0.03416820  1
  N  769  1  0.45638800  0.90457000  0.01577220  1
  N  770  1  0.45488300  0.95880500  0.94797500  1
  N  775  1  0.39788700  0.03501490  0.01955820  1
  N  776  1  0.59901500  0.87251600  0.01164320  1
  O  201  1  0.94352700  0.21201500  0.14717700  1
  O  202  1  0.85547400  0.07692800  0.13580900  1
  O  203  1  0.91374100  0.08845400  0.12065200  1
  O  204  1  0.95445800  0.18366000  0.11066300  1
  O  227  1  0.44384300  0.78780100  0.85286800  1
  O  228  1  0.35508400  0.92273800  0.86369400  1
  O  229  1  0.41331000  0.91142700  0.87909300  1
  O  230  1  0.45446500  0.81622000  0.88938100  1
  O  253  1  0.19383500  0.85288200  0.21197000  1
  O  254  1  0.10505800  0.86366900  0.07695700  1
  O  255  1  0.16330100  0.87907300  0.08821600  1
  O  256  1  0.20456900  0.88938600  0.18356200  1
  O  279  1  0.69357900  0.14711500  0.78779800  1
  O  280  1  0.60548800  0.13577500  0.92289400  1
  O  281  1  0.66377100  0.12063400  0.91138400  1
  O  282  1  0.70454700  0.11061100  0.81615800  1
  O  305  1  0.71319300  0.09618100  0.51769500  1
  O  306  1  0.70389200  0.97903100  0.43779300  1
  O  307  1  0.69025100  0.02272900  0.42390700  1
  O  308  1  0.67070500  0.08046200  0.48645000  1
  O  331  1  0.21394800  0.90377900  0.48159500  1
  O  332  1  0.20406700  0.02097500  0.56203300  1
  O  333  1  0.19027900  0.97728100  0.57584700  1
  O  334  1  0.17123700  0.91906600  0.51288900  1
  O  357  1  0.96338500  0.48181800  0.09614600  1
  O  358  1  0.95393400  0.56191600  0.97915600  1
  O  359  1  0.94027700  0.57566800  0.02289300  1
  O  360  1  0.92089400  0.51310700  0.08051400  1
  O  383  1  0.46305400  0.51766500  0.90353800  1
  O  384  1  0.45397100  0.43790800  0.02070900  1
  O  385  1  0.44024600  0.42403800  0.97702100  1
  O  386  1  0.42065700  0.48639900  0.91935100  1
  O  589  1  0.94352700  0.67150000  0.17015100  1
  O  590  1  0.85547400  0.53641300  0.15878300  1
  O  591  1  0.91374100  0.54793900  0.14362600  1
  O  592  1  0.95445800  0.64314500  0.13363700  1
  O  615  1  0.44384300  0.24728600  0.87584200  1
  O  616  1  0.35508400  0.38222300  0.88666800  1
  O  617  1  0.41331000  0.37091200  0.90206700  1
  O  618  1  0.45446500  0.27570500  0.91235500  1
  O  641  1  0.19383500  0.31236700  0.23494400  1
  O  642  1  0.10505800  0.32315400  0.09993120  1
  O  643  1  0.16330100  0.33855800  0.11119000  1
  O  644  1  0.20456900  0.34887100  0.20653600  1
  O  667  1  0.69357900  0.60660000  0.81077200  1
  O  668  1  0.60548800  0.59526000  0.94586800  1
  O  669  1  0.66377100  0.58011900  0.93435800  1
  O  670  1  0.70454700  0.57009600  0.83913200  1
  O  693  1  0.71319300  0.55566600  0.54066900  1
  O  694  1  0.70389200  0.43851600  0.46076700  1
  O  695  1  0.69025100  0.48221400  0.44688100  1
  O  696  1  0.67070500  0.53994700  0.50942400  1
  O  719  1  0.21394800  0.36326400  0.50456900  1
  O  720  1  0.20406700  0.48046000  0.58500700  1
  O  721  1  0.19027900  0.43676600  0.59882100  1
  O  722  1  0.17123700  0.37855100  0.53586300  1
  O  745  1  0.96338500  0.94130300  0.11912000  1
  O  746  1  0.95393400  0.02140090  0.00213025  1
  O  747  1  0.94027700  0.03515290  0.04586720  1
  O  748  1  0.92089400  0.97259200  0.10348800  1
  O  771  1  0.46305400  0.97715000  0.92651200  1
  O  772  1  0.45397100  0.89739300  0.04368320  1
  O  773  1  0.44024600  0.88352300  0.99999500  1
  O  774  1  0.42065700  0.94588400  0.94232500  1
