# generated using pymatgen
data_H7C14(NO)2
_symmetry_space_group_name_H-M   'P 1'
_cell_length_a   25.35120000
_cell_length_b   25.35120000
_cell_length_c   42.84390000
_cell_angle_alpha   90.00000000
_cell_angle_beta   90.00000000
_cell_angle_gamma   90.00000000
_symmetry_Int_Tables_number   1
_chemical_formula_structural   H7C14(NO)2
_chemical_formula_sum   'H224 C448 N64 O64'
_cell_volume   27535.06081232
_cell_formula_units_Z   32
loop_
 _symmetry_equiv_pos_site_id
 _symmetry_equiv_pos_as_xyz
  1  'x, y, z'
loop_
 _atom_site_type_symbol
 _atom_site_label
 _atom_site_symmetry_multiplicity
 _atom_site_fract_x
 _atom_site_fract_y
 _atom_site_fract_z
 _atom_site_occupancy
  H  7  1  0.11992700  0.45045500  0.88414600  1
  H  16  1  0.22423200  0.34445900  0.86520500  1
  H  17  1  0.10132600  0.46429300  0.77259200  1
  H  18  1  0.23749100  0.32398000  0.97664900  1
  H  19  1  0.26008400  0.44024300  0.83220200  1
  H  20  1  0.21624200  0.48430400  0.91762300  1
  H  27  1  0.37882900  0.49923000  0.38411500  1
  H  36  1  0.27459900  0.60529600  0.36520700  1
  H  37  1  0.39734100  0.48533700  0.27255900  1
  H  38  1  0.26126400  0.62567700  0.47666500  1
  H  39  1  0.23864800  0.50953300  0.33219600  1
  H  40  1  0.28248500  0.46539700  0.41758300  1
  H  47  1  0.77609200  0.84545300  0.13386600  1
  H  56  1  0.87978700  0.95082500  0.11514000  1
  H  57  1  0.75955600  0.82737200  0.02254000  1
  H  58  1  0.89997500  0.96456000  0.22661600  1
  H  59  1  0.78254100  0.98623600  0.08233100  1
  H  60  1  0.74001500  0.94194600  0.16756500  1
  H  67  1  0.72255600  0.10423200  0.63383800  1
  H  76  1  0.61886500  0.99889800  0.61515600  1
  H  77  1  0.73913500  0.12214700  0.52250100  1
  H  78  1  0.59870800  0.98520600  0.72664200  1
  H  79  1  0.71611900  0.96338500  0.58236200  1
  H  80  1  0.75866100  0.00772500  0.66756000  1
  H  87  1  0.37993900  0.45064800  0.61526100  1
  H  96  1  0.27469100  0.34560100  0.63415700  1
  H  97  1  0.39988200  0.46458500  0.72673800  1
  H  98  1  0.26148100  0.32663200  0.52261100  1
  H  99  1  0.24003500  0.44185200  0.66757600  1
  H  100  1  0.28406300  0.48579100  0.58218000  1
  H  107  1  0.11864900  0.49895000  0.11528200  1
  H  116  1  0.22380800  0.60407300  0.13418100  1
  H  117  1  0.09874900  0.48497000  0.22675100  1
  H  118  1  0.23712300  0.62303000  0.02263200  1
  H  119  1  0.25855100  0.50784500  0.16758900  1
  H  120  1  0.21457000  0.46386300  0.08221100  1
  H  127  1  0.72279300  0.84424200  0.36553400  1
  H  136  1  0.62002900  0.95053300  0.38425000  1
  H  137  1  0.73942300  0.82470900  0.47677000  1
  H  138  1  0.60130800  0.96421300  0.27269200  1
  H  139  1  0.71770800  0.98468900  0.41748500  1
  H  140  1  0.76011600  0.94027700  0.33225700  1
  H  147  1  0.77586700  0.10540400  0.86555500  1
  H  156  1  0.87862700  0.99912200  0.88427200  1
  H  157  1  0.75918900  0.12480400  0.97679400  1
  H  158  1  0.89745500  0.98548600  0.77270700  1
  H  159  1  0.78095200  0.96490700  0.91745500  1
  H  160  1  0.73857900  0.00939000  0.83223400  1
  H  167  1  0.87904600  0.50080800  0.11490400  1
  H  176  1  0.77431700  0.60505900  0.13355600  1
  H  177  1  0.89659900  0.48390900  0.22626200  1
  H  178  1  0.76120100  0.62557100  0.02209800  1
  H  179  1  0.73813300  0.50789200  0.16629300  1
  H  180  1  0.78240700  0.46524700  0.08111200  1
  H  187  1  0.61954300  0.44880200  0.61492700  1
  H  196  1  0.72418500  0.34448900  0.63353000  1
  H  197  1  0.60204900  0.46568900  0.72628900  1
  H  198  1  0.73738800  0.32415400  0.52205700  1
  H  199  1  0.76047100  0.44163100  0.66630000  1
  H  200  1  0.71623300  0.48439000  0.58116300  1
  H  207  1  0.22273500  0.10410100  0.86472400  1
  H  216  1  0.11863600  0.00046400  0.88316100  1
  H  217  1  0.23913700  0.12213900  0.97606600  1
  H  218  1  0.09935600  0.98379000  0.77188700  1
  H  219  1  0.21619000  0.96331800  0.91625100  1
  H  220  1  0.25909200  0.00624300  0.83124900  1
  H  227  1  0.27592700  0.84556400  0.36472100  1
  H  236  1  0.38003800  0.94914100  0.38314600  1
  H  237  1  0.25946700  0.82763600  0.47607000  1
  H  238  1  0.39933700  0.96578700  0.27187000  1
  H  239  1  0.28248200  0.98638900  0.41621800  1
  H  240  1  0.23958000  0.94344100  0.33123200  1
  H  247  1  0.61850600  0.50061000  0.38304100  1
  H  256  1  0.72416600  0.60390300  0.36438800  1
  H  257  1  0.59940200  0.48370000  0.27177700  1
  H  258  1  0.73724200  0.62290800  0.47594600  1
  H  259  1  0.75905900  0.50627900  0.33120900  1
  H  260  1  0.71467500  0.46374800  0.41639500  1
  H  267  1  0.88024500  0.44903500  0.88301900  1
  H  276  1  0.77466800  0.34566300  0.86440900  1
  H  277  1  0.89925800  0.46594200  0.77175000  1
  H  278  1  0.76151300  0.32678300  0.97597700  1
  H  279  1  0.73966800  0.44324400  0.83121200  1
  H  280  1  0.78402800  0.48588500  0.91635800  1
  H  287  1  0.27575300  0.10526700  0.63321000  1
  H  296  1  0.37892600  0.00071800  0.61479400  1
  H  297  1  0.25926500  0.12474700  0.52195900  1
  H  298  1  0.39666300  0.98406200  0.72615900  1
  H  299  1  0.28090400  0.96481600  0.58127200  1
  H  300  1  0.23810900  0.00785500  0.66625800  1
  H  307  1  0.22288900  0.84436100  0.13319600  1
  H  316  1  0.11972100  0.94888800  0.11479100  1
  H  317  1  0.23940200  0.82496500  0.02193700  1
  H  318  1  0.10196200  0.96555800  0.22616100  1
  H  319  1  0.21774700  0.98485100  0.08128900  1
  H  320  1  0.26054300  0.94178000  0.16626000  1
  H  331  1  0.21869700  0.64963300  0.77487700  1
  H  332  1  0.27713900  0.39088200  0.72633400  1
  H  333  1  0.23009000  0.38998700  0.77444800  1
  H  335  1  0.29188800  0.57372700  0.70222100  1
  H  346  1  0.27999300  0.30004400  0.27491600  1
  H  347  1  0.22147400  0.55875400  0.22632600  1
  H  348  1  0.26855700  0.55968800  0.27442900  1
  H  350  1  0.20674900  0.37589000  0.20225600  1
  H  361  1  0.57343100  0.94458500  0.02504100  1
  H  362  1  0.83216400  0.00232400  0.97622700  1
  H  363  1  0.83307100  0.95578700  0.02448700  1
  H  365  1  0.64936100  0.01699300  0.95210400  1
  H  376  1  0.92524800  0.00492900  0.52502400  1
  H  377  1  0.66647600  0.94724300  0.47625900  1
  H  378  1  0.66560400  0.99378500  0.52451800  1
  H  380  1  0.84926400  0.93253400  0.45210400  1
  H  391  1  0.77933800  0.29838300  0.22358700  1
  H  392  1  0.72188600  0.55716800  0.27243800  1
  H  393  1  0.76837600  0.55803600  0.22416000  1
  H  395  1  0.70715700  0.37436200  0.29657900  1
  H  406  1  0.71930600  0.65118700  0.72358700  1
  H  407  1  0.77678200  0.39240700  0.77243800  1
  H  408  1  0.73025600  0.39153200  0.72417200  1
  H  410  1  0.79152700  0.57521400  0.79656800  1
  H  421  1  0.42526900  0.00495900  0.97362400  1
  H  422  1  0.16650900  0.94740900  0.02245300  1
  H  423  1  0.16563900  0.99377000  0.97412800  1
  H  425  1  0.34929100  0.93281400  0.04663100  1
  H  436  1  0.07336400  0.94490800  0.47358200  1
  H  437  1  0.33215500  0.00222100  0.52245000  1
  H  438  1  0.33300100  0.95588600  0.47411400  1
  H  440  1  0.14937600  0.01694600  0.54661400  1
  H  451  1  0.71861200  0.14961100  0.27488600  1
  H  452  1  0.77722000  0.89091500  0.22634800  1
  H  453  1  0.73018900  0.88999600  0.27447100  1
  H  455  1  0.79187400  0.07374900  0.20223900  1
  H  466  1  0.78003300  0.80008300  0.77488900  1
  H  467  1  0.72151500  0.05879400  0.72634100  1
  H  468  1  0.76856600  0.05970500  0.77445700  1
  H  470  1  0.70677400  0.87596100  0.70224900  1
  H  481  1  0.07532800  0.44418700  0.52480700  1
  H  482  1  0.33410200  0.50274500  0.47635400  1
  H  483  1  0.33497700  0.45554000  0.52441500  1
  H  485  1  0.15127200  0.51773800  0.45228600  1
  H  496  1  0.42332800  0.50554900  0.02487900  1
  H  497  1  0.16461100  0.44686600  0.97637400  1
  H  498  1  0.16368500  0.49406200  0.02443900  1
  H  500  1  0.34746100  0.43197500  0.95234000  1
  H  511  1  0.27945000  0.79845000  0.72361500  1
  H  512  1  0.22184600  0.05720200  0.77243100  1
  H  513  1  0.26833000  0.05807800  0.72414900  1
  H  515  1  0.20719500  0.87441100  0.79658900  1
  H  526  1  0.21926900  0.15118000  0.22357000  1
  H  527  1  0.27678600  0.89243700  0.27243800  1
  H  528  1  0.23028300  0.89155000  0.22415800  1
  H  530  1  0.29152400  0.07523700  0.29654800  1
  H  541  1  0.92340200  0.50534000  0.47381300  1
  H  542  1  0.66461400  0.44705500  0.52233800  1
  H  543  1  0.66375800  0.49405900  0.47420000  1
  H  545  1  0.84742600  0.43212100  0.54643700  1
  H  556  1  0.57529700  0.44419900  0.97378500  1
  H  557  1  0.83403800  0.50271300  0.02230500  1
  H  558  1  0.83492900  0.45569800  0.97417500  1
  H  560  1  0.65121100  0.51752100  0.04639800  1
  H  571  1  0.42524500  0.17190800  0.93256100  1
  H  572  1  0.17169300  0.27101200  0.90089800  1
  H  573  1  0.17125100  0.17752100  0.90055700  1
  H  575  1  0.35102300  0.31449900  0.92184300  1
  H  586  1  0.07340000  0.77765800  0.43246700  1
  H  587  1  0.32709000  0.67878300  0.40093900  1
  H  588  1  0.32744300  0.77227800  0.40059100  1
  H  590  1  0.14776900  0.63513200  0.42180300  1
  H  601  1  0.05264800  0.15195600  0.18185500  1
  H  602  1  0.95284500  0.89832300  0.15121000  1
  H  603  1  0.04631800  0.89762100  0.15093300  1
  H  605  1  0.90980900  0.07804500  0.17141900  1
  H  616  1  0.44611600  0.79768500  0.68187500  1
  H  617  1  0.54574800  0.05138100  0.65122200  1
  H  618  1  0.45227400  0.05201400  0.65092500  1
  H  620  1  0.58890600  0.87169700  0.67146000  1
  H  631  1  0.07348700  0.17411900  0.56570400  1
  H  632  1  0.32700300  0.27260800  0.59812700  1
  H  633  1  0.32745300  0.17911500  0.59780700  1
  H  635  1  0.14769000  0.31650200  0.57743300  1
  H  646  1  0.42515100  0.77544100  0.06572800  1
  H  647  1  0.17155400  0.67711900  0.09810300  1
  H  648  1  0.17115600  0.77061300  0.09775100  1
  H  650  1  0.35086800  0.63311300  0.07749700  1
  H  661  1  0.44821500  0.15187100  0.31629400  1
  H  662  1  0.54737300  0.89831900  0.34788800  1
  H  663  1  0.45390300  0.89762100  0.34748200  1
  H  665  1  0.59083900  0.07799300  0.32782900  1
  H  676  1  0.05039000  0.79774400  0.81628300  1
  H  677  1  0.95135400  0.05133700  0.84789600  1
  H  678  1  0.04482100  0.05199100  0.84749000  1
  H  680  1  0.90780100  0.87168500  0.82784400  1
  H  691  1  0.57349400  0.77772100  0.06607400  1
  H  692  1  0.82695700  0.67847600  0.09783000  1
  H  693  1  0.82747800  0.77196600  0.09809400  1
  H  695  1  0.64760100  0.63509300  0.07689500  1
  H  706  1  0.92517300  0.17201600  0.56613100  1
  H  707  1  0.67158400  0.27107200  0.59774800  1
  H  708  1  0.67113900  0.17757700  0.59801700  1
  H  710  1  0.85094000  0.31459000  0.57690300  1
  H  721  1  0.92515800  0.77550400  0.43300900  1
  H  722  1  0.67174600  0.67684200  0.40048400  1
  H  723  1  0.67119800  0.77032900  0.40089700  1
  H  725  1  0.85109800  0.63307700  0.42114000  1
  H  736  1  0.57349100  0.17425300  0.93297700  1
  H  737  1  0.82702800  0.27267900  0.90054000  1
  H  738  1  0.82748200  0.17918700  0.90094400  1
  H  740  1  0.64769600  0.31661000  0.92114300  1
  H  751  1  0.55253700  0.65200700  0.68181400  1
  H  752  1  0.45290100  0.39819700  0.65145000  1
  H  753  1  0.54637200  0.39755800  0.65117000  1
  H  755  1  0.40974300  0.57796800  0.67146500  1
  H  766  1  0.94599700  0.29760200  0.18179700  1
  H  767  1  0.04575900  0.55136900  0.15145000  1
  H  768  1  0.95228800  0.55205200  0.15116100  1
  H  770  1  0.08882700  0.37158000  0.17147300  1
  H  781  1  0.94826900  0.65194000  0.81634400  1
  H  782  1  0.04736200  0.39825300  0.84766900  1
  H  783  1  0.95389800  0.39757800  0.84725600  1
  H  785  1  0.09087600  0.57799100  0.82780900  1
  H  796  1  0.55047400  0.29772000  0.31635300  1
  H  797  1  0.45131900  0.55139700  0.34763600  1
  H  798  1  0.54478200  0.55208700  0.34724900  1
  H  800  1  0.40784600  0.37164800  0.32778300  1
  C  1  1  0.19412000  0.44408500  0.86212000  1
  C  2  1  0.14016200  0.45742500  0.86383300  1
  C  3  1  0.11261400  0.47624100  0.83737200  1
  C  4  1  0.14023600  0.48234700  0.80880000  1
  C  5  1  0.19485200  0.47071800  0.80715000  1
  C  6  1  0.22110900  0.45081000  0.83369600  1
  C  9  1  0.21895900  0.41852400  0.88749300  1
  C  10  1  0.22611500  0.44516200  0.91599700  1
  C  11  1  0.24540300  0.41824800  0.94246000  1
  C  12  1  0.25583300  0.36342300  0.94071400  1
  C  13  1  0.24953200  0.33620700  0.91202200  1
  C  14  1  0.23136900  0.36435000  0.88561400  1
  C  21  1  0.30463000  0.50563200  0.36209800  1
  C  22  1  0.35856000  0.49216900  0.36382500  1
  C  23  1  0.38608800  0.47338100  0.33734300  1
  C  24  1  0.35844900  0.46731000  0.30877600  1
  C  25  1  0.30384200  0.47897800  0.30714000  1
  C  26  1  0.27761600  0.49893800  0.33368100  1
  C  29  1  0.27984700  0.53122400  0.38748100  1
  C  30  1  0.27261600  0.50454300  0.41596500  1
  C  31  1  0.25333700  0.53144100  0.44243600  1
  C  32  1  0.24294200  0.58627500  0.44071100  1
  C  33  1  0.24928200  0.61351600  0.41203000  1
  C  34  1  0.26749000  0.58541100  0.38562300  1
  C  41  1  0.78039900  0.91997800  0.11207900  1
  C  42  1  0.76833700  0.86571300  0.11366200  1
  C  43  1  0.74933600  0.83807700  0.08727600  1
  C  44  1  0.74167600  0.86595000  0.05891500  1
  C  45  1  0.75251100  0.92074800  0.05731700  1
  C  46  1  0.77258100  0.94709700  0.08379500  1
  C  49  1  0.80575900  0.94512500  0.13742300  1
  C  50  1  0.77907400  0.95213500  0.16593000  1
  C  51  1  0.80581400  0.97172700  0.19238600  1
  C  52  1  0.86056500  0.98259100  0.19061300  1
  C  53  1  0.88782200  0.97637000  0.16193000  1
  C  54  1  0.85983100  0.95794500  0.13552900  1
  C  61  1  0.71828400  0.02967400  0.61208200  1
  C  62  1  0.73041400  0.08392800  0.61366200  1
  C  63  1  0.74936000  0.11152800  0.58724800  1
  C  64  1  0.75701600  0.08363100  0.55889800  1
  C  65  1  0.74619200  0.02883300  0.55732700  1
  C  66  1  0.72609100  0.00251900  0.58381000  1
  C  69  1  0.69288900  0.00459000  0.63743700  1
  C  70  1  0.71960200  0.99754100  0.66593100  1
  C  71  1  0.69285700  0.97797600  0.69239200  1
  C  72  1  0.63809900  0.96715600  0.69063700  1
  C  73  1  0.61082600  0.97337600  0.66195800  1
  C  74  1  0.63880500  0.99182500  0.63555800  1
  C  81  1  0.30586100  0.44491300  0.63749500  1
  C  82  1  0.35994200  0.45770500  0.63564600  1
  C  83  1  0.38785700  0.47626100  0.66203500  1
  C  84  1  0.36054700  0.48254400  0.69069000  1
  C  85  1  0.30579700  0.47168900  0.69241500  1
  C  86  1  0.27910300  0.45202100  0.66596600  1
  C  89  1  0.28057400  0.41982200  0.61211200  1
  C  90  1  0.27379800  0.44673500  0.58366700  1
  C  91  1  0.25426600  0.42029100  0.55709600  1
  C  92  1  0.24307300  0.36559100  0.55873500  1
  C  93  1  0.24922000  0.33803500  0.58732700  1
  C  94  1  0.26763300  0.36576000  0.61383000  1
  C  101  1  0.19272400  0.50471300  0.13751400  1
  C  102  1  0.13867100  0.49179800  0.13564600  1
  C  103  1  0.11075800  0.47327100  0.16204800  1
  C  104  1  0.13808100  0.46702600  0.19070200  1
  C  105  1  0.19282200  0.47791300  0.19242400  1
  C  106  1  0.21949300  0.49763600  0.16598000  1
  C  109  1  0.21796200  0.52985600  0.11213000  1
  C  110  1  0.22482400  0.50292200  0.08369900  1
  C  111  1  0.24436400  0.52936600  0.05712800  1
  C  112  1  0.25550800  0.58408200  0.05876200  1
  C  113  1  0.24930200  0.61163900  0.08735000  1
  C  114  1  0.23084400  0.58393200  0.11384500  1
  C  121  1  0.71908900  0.91861800  0.38755300  1
  C  122  1  0.73063100  0.86424500  0.38581400  1
  C  123  1  0.74936700  0.83622700  0.41212100  1
  C  124  1  0.75723300  0.86375600  0.44057600  1
  C  125  1  0.74713500  0.91866500  0.44226300  1
  C  126  1  0.72728600  0.94547200  0.41588800  1
  C  129  1  0.69419500  0.94421800  0.36220500  1
  C  130  1  0.72114400  0.95085700  0.33375500  1
  C  131  1  0.69487300  0.97070600  0.30719900  1
  C  132  1  0.64025300  0.98232200  0.30887700  1
  C  133  1  0.61263700  0.97628300  0.33746200  1
  C  134  1  0.64024100  0.95757800  0.36394200  1
  C  141  1  0.77954000  0.03100500  0.88754400  1
  C  142  1  0.76792700  0.08536300  0.88581000  1
  C  143  1  0.74921800  0.11336500  0.91213400  1
  C  144  1  0.74138000  0.08580400  0.94057900  1
  C  145  1  0.75148600  0.03089600  0.94224800  1
  C  146  1  0.77135500  0.00412000  0.91587300  1
  C  149  1  0.80449300  0.00546500  0.86219400  1
  C  150  1  0.77754800  0.99880300  0.83374500  1
  C  151  1  0.80385000  0.97898100  0.80719000  1
  C  152  1  0.85847100  0.96736900  0.80887300  1
  C  153  1  0.88605100  0.97342000  0.83746700  1
  C  154  1  0.85845100  0.99213700  0.86394200  1
  C  161  1  0.80446900  0.50545000  0.13661400  1
  C  162  1  0.85866400  0.49308400  0.13507000  1
  C  163  1  0.88608700  0.47388600  0.16147700  1
  C  164  1  0.85812300  0.46629300  0.18980400  1
  C  165  1  0.80338500  0.47743200  0.19134800  1
  C  166  1  0.77721600  0.49771900  0.16486200  1
  C  169  1  0.77958700  0.53100700  0.11125800  1
  C  170  1  0.77250200  0.50438200  0.08274100  1
  C  171  1  0.75325300  0.53129500  0.05626600  1
  C  172  1  0.74281600  0.58611700  0.05802100  1
  C  173  1  0.74908000  0.61332700  0.08672100  1
  C  174  1  0.76719700  0.58518200  0.11313900  1
  C  181  1  0.69412400  0.44414000  0.63663100  1
  C  182  1  0.63994900  0.45660500  0.63507500  1
  C  183  1  0.61253400  0.47576400  0.66149800  1
  C  184  1  0.64050900  0.48330200  0.68982500  1
  C  185  1  0.69524000  0.47213900  0.69135800  1
  C  186  1  0.72139300  0.45182800  0.66487600  1
  C  189  1  0.71896300  0.41856300  0.61126300  1
  C  190  1  0.72613000  0.44525600  0.58277300  1
  C  191  1  0.74538000  0.41837400  0.55628400  1
  C  192  1  0.75576600  0.36353600  0.55800900  1
  C  193  1  0.74945000  0.33628400  0.58669000  1
  C  194  1  0.73128600  0.36437700  0.61311400  1
  C  201  1  0.21843600  0.02957200  0.88649900  1
  C  202  1  0.23047600  0.08383800  0.88492800  1
  C  203  1  0.24944200  0.11145700  0.91133100  1
  C  204  1  0.25706700  0.08357500  0.93969400  1
  C  205  1  0.24622800  0.02877900  0.94128400  1
  C  206  1  0.22619200  0.00244100  0.91479000  1
  C  209  1  0.19301400  0.00444800  0.86117200  1
  C  210  1  0.21992500  0.99646000  0.83283200  1
  C  211  1  0.19324100  0.97652400  0.80643800  1
  C  212  1  0.13838000  0.96613800  0.80811900  1
  C  213  1  0.11079700  0.97381000  0.83656900  1
  C  214  1  0.13871000  0.99261400  0.86290400  1
  C  221  1  0.28019900  0.92011600  0.38648200  1
  C  222  1  0.26808100  0.86586300  0.38490200  1
  C  223  1  0.24916400  0.83826600  0.41132500  1
  C  224  1  0.24154500  0.86615900  0.43968200  1
  C  225  1  0.25239600  0.92095300  0.44125700  1
  C  226  1  0.27245900  0.94726700  0.41476300  1
  C  229  1  0.30567100  0.94518000  0.36115000  1
  C  230  1  0.27874700  0.95323100  0.33281700  1
  C  231  1  0.30544400  0.97313600  0.30641700  1
  C  232  1  0.36031400  0.98347000  0.30809700  1
  C  233  1  0.38789100  0.97577100  0.33654700  1
  C  234  1  0.35998500  0.95695900  0.36288000  1
  C  241  1  0.69292100  0.50461800  0.36108500  1
  C  242  1  0.63861200  0.49280400  0.36278900  1
  C  243  1  0.61076300  0.47388600  0.33647000  1
  C  244  1  0.63837100  0.46611500  0.30804100  1
  C  245  1  0.69323200  0.47648100  0.30639600  1
  C  246  1  0.71988600  0.49651200  0.33277800  1
  C  249  1  0.71828400  0.52969000  0.38644200  1
  C  250  1  0.72499000  0.50279200  0.41490100  1
  C  251  1  0.74449200  0.52923200  0.44148400  1
  C  252  1  0.75569900  0.58393200  0.43983600  1
  C  253  1  0.74957300  0.61147300  0.41123400  1
  C  254  1  0.73121100  0.58375000  0.38472000  1
  C  261  1  0.80582200  0.44499200  0.86107600  1
  C  262  1  0.86010800  0.45691200  0.86278500  1
  C  263  1  0.88794100  0.47579900  0.83645000  1
  C  264  1  0.86030900  0.48351100  0.80802300  1
  C  265  1  0.80545500  0.47309700  0.80638900  1
  C  266  1  0.77883300  0.45304300  0.83277100  1
  C  269  1  0.78051400  0.41988500  0.88644300  1
  C  270  1  0.77372500  0.44683800  0.91487900  1
  C  271  1  0.75422300  0.42042100  0.94147300  1
  C  272  1  0.74307200  0.36570600  0.93984600  1
  C  273  1  0.74923700  0.33812600  0.91126100  1
  C  274  1  0.76765100  0.36581200  0.88474600  1
  C  281  1  0.27943100  0.03089000  0.61120400  1
  C  282  1  0.26792300  0.08526300  0.61292700  1
  C  283  1  0.24921100  0.11327800  0.58661000  1
  C  284  1  0.24140100  0.08572400  0.55815600  1
  C  285  1  0.25150100  0.03081200  0.55646600  1
  C  286  1  0.27129500  0.00402600  0.58286200  1
  C  289  1  0.30438300  0.00530700  0.63653300  1
  C  290  1  0.27719100  0.99767900  0.66481500  1
  C  291  1  0.30339100  0.97748600  0.69131400  1
  C  292  1  0.35813500  0.96636300  0.68973300  1
  C  293  1  0.38607900  0.97386100  0.66138400  1
  C  294  1  0.35857800  0.99294100  0.63496500  1
  C  301  1  0.21924500  0.91876000  0.11120700  1
  C  302  1  0.23081400  0.86439500  0.11293800  1
  C  303  1  0.24945600  0.83640100  0.08659400  1
  C  304  1  0.25727300  0.86395800  0.05814400  1
  C  305  1  0.24717600  0.91887000  0.05647500  1
  C  306  1  0.22736300  0.94564200  0.08286900  1
  C  309  1  0.19425200  0.94429700  0.13654000  1
  C  310  1  0.22146400  0.95197300  0.16481200  1
  C  311  1  0.19524400  0.97214500  0.19131100  1
  C  312  1  0.14049900  0.98325700  0.18974000  1
  C  313  1  0.11257000  0.97573100  0.16139000  1
  C  314  1  0.14005000  0.95662700  0.13497200  1
  C  321  1  0.27840800  0.47432400  0.72113100  1
  C  322  1  0.26284500  0.52287400  0.73499800  1
  C  323  1  0.23462200  0.52170200  0.76377400  1
  C  324  1  0.22250700  0.47318000  0.77848300  1
  C  325  1  0.23860800  0.42560400  0.76433900  1
  C  326  1  0.26607700  0.42616800  0.73599400  1
  C  328  1  0.23062300  0.61581200  0.76401500  1
  C  329  1  0.25802800  0.61737800  0.73557900  1
  C  336  1  0.22022300  0.47530600  0.22114000  1
  C  337  1  0.23580100  0.42676800  0.23501600  1
  C  338  1  0.26404300  0.42796700  0.26378500  1
  C  339  1  0.27616300  0.47649700  0.27847800  1
  C  340  1  0.26003800  0.52406100  0.26433100  1
  C  341  1  0.23254800  0.52347700  0.23599100  1
  C  343  1  0.26805500  0.33385600  0.26404700  1
  C  344  1  0.24063500  0.33226600  0.23561800  1
  C  351  1  0.74872500  0.00356800  0.97100300  1
  C  352  1  0.70018600  0.98822000  0.98497000  1
  C  353  1  0.70136200  0.96031200  0.01386100  1
  C  354  1  0.74987200  0.94835200  0.02862100  1
  C  355  1  0.79743600  0.96423700  0.01437500  1
  C  356  1  0.79687200  0.99138300  0.98592500  1
  C  358  1  0.60725600  0.95637500  0.01413000  1
  C  359  1  0.60569000  0.98349400  0.98559800  1
  C  366  1  0.74991600  0.94598100  0.47102100  1
  C  367  1  0.79846200  0.96132200  0.48497600  1
  C  368  1  0.79731000  0.98922900  0.51387000  1
  C  369  1  0.74880700  0.00119900  0.52864000  1
  C  370  1  0.70123200  0.98532400  0.51440200  1
  C  371  1  0.70177600  0.95817400  0.48595000  1
  C  373  1  0.89141200  0.99314600  0.51412200  1
  C  374  1  0.89296200  0.96602700  0.48558800  1
  C  381  1  0.72060800  0.47372400  0.27766400  1
  C  382  1  0.73588100  0.42517000  0.26368700  1
  C  383  1  0.76373800  0.42632200  0.23478000  1
  C  384  1  0.77570500  0.47482900  0.22001600  1
  C  385  1  0.75989600  0.52241200  0.23426900  1
  C  386  1  0.73279600  0.52186400  0.26273700  1
  C  388  1  0.76759900  0.33221600  0.23450700  1
  C  389  1  0.74053600  0.33066900  0.26305900  1
  C  396  1  0.77807200  0.47585000  0.77766000  1
  C  397  1  0.76279100  0.52440400  0.76368300  1
  C  398  1  0.73491500  0.52324400  0.73478300  1
  C  399  1  0.72293100  0.47473800  0.72002500  1
  C  400  1  0.73875300  0.42715800  0.73427700  1
  C  401  1  0.76587200  0.42770700  0.76273600  1
  C  403  1  0.73105300  0.61735400  0.73450500  1
  C  404  1  0.75813200  0.61890400  0.76305100  1
  C  411  1  0.24994200  0.94618600  0.02770600  1
  C  412  1  0.29848500  0.96147100  0.01372000  1
  C  413  1  0.29733100  0.98927700  0.98479000  1
  C  414  1  0.24883300  0.00118000  0.96999500  1
  C  415  1  0.20126300  0.98536000  0.98425800  1
  C  416  1  0.20181000  0.95832000  0.01275100  1
  C  418  1  0.39143500  0.99321300  0.98454100  1
  C  419  1  0.39298300  0.96618900  0.01310600  1
  C  426  1  0.24872100  0.00351200  0.52769400  1
  C  427  1  0.20016900  0.98827900  0.51369900  1
  C  428  1  0.20130900  0.96048900  0.48476200  1
  C  429  1  0.24980200  0.94855300  0.46996800  1
  C  430  1  0.29737900  0.96433500  0.48423900  1
  C  431  1  0.29684700  0.99135200  0.51274000  1
  C  433  1  0.10720200  0.95662400  0.48450500  1
  C  434  1  0.10566800  0.98363200  0.51307600  1
  C  441  1  0.77846300  0.97435000  0.22113500  1
  C  442  1  0.76285400  0.02287800  0.23501100  1
  C  443  1  0.73461900  0.02168700  0.26379000  1
  C  444  1  0.72252100  0.97317500  0.27851100  1
  C  445  1  0.73867800  0.92561500  0.26436200  1
  C  446  1  0.76614800  0.92619500  0.23601000  1
  C  448  1  0.73056400  0.11579700  0.26402600  1
  C  449  1  0.75797500  0.11737800  0.23559200  1
  C  456  1  0.72023700  0.97536000  0.72113300  1
  C  457  1  0.73583400  0.92682600  0.73501200  1
  C  458  1  0.76408100  0.92801000  0.76378400  1
  C  459  1  0.77620200  0.97652400  0.77850000  1
  C  460  1  0.76006100  0.02408400  0.76435100  1
  C  461  1  0.73257900  0.02351300  0.73600100  1
  C  463  1  0.76809600  0.83390000  0.76402600  1
  C  464  1  0.74067000  0.83232200  0.73560000  1
  C  471  1  0.25065900  0.50408600  0.47116300  1
  C  472  1  0.20210300  0.48846900  0.48500200  1
  C  473  1  0.20326600  0.46011100  0.51373400  1
  C  474  1  0.25178400  0.44791900  0.52842000  1
  C  475  1  0.29936400  0.46408400  0.51430800  1
  C  476  1  0.29881300  0.49166800  0.48600300  1
  C  478  1  0.10915500  0.45615100  0.51396500  1
  C  479  1  0.10760000  0.48370400  0.48557900  1
  C  486  1  0.24805700  0.44557200  0.97119900  1
  C  487  1  0.29659700  0.46120800  0.98504700  1
  C  488  1  0.29540400  0.48955800  0.01378100  1
  C  489  1  0.24687200  0.50171900  0.02846100  1
  C  490  1  0.19930800  0.48553000  0.01434100  1
  C  491  1  0.19989000  0.45795000  0.98603400  1
  C  493  1  0.38951300  0.49357300  0.01403000  1
  C  494  1  0.39109800  0.46602400  0.98564200  1
  C  501  1  0.22058600  0.97377100  0.77767600  1
  C  502  1  0.23590500  0.92522900  0.76369700  1
  C  503  1  0.26377700  0.92638800  0.73479000  1
  C  504  1  0.27573800  0.97488700  0.72000800  1
  C  505  1  0.25987400  0.02245100  0.73426300  1
  C  506  1  0.23277000  0.02190100  0.76273600  1
  C  508  1  0.26768900  0.83228300  0.73452900  1
  C  509  1  0.24061600  0.83072800  0.76307900  1
  C  516  1  0.27808100  0.97587300  0.27766100  1
  C  517  1  0.26278100  0.02441000  0.26367300  1
  C  518  1  0.23490000  0.02324400  0.23477100  1
  C  519  1  0.22291300  0.97474500  0.22000100  1
  C  520  1  0.23876500  0.92717700  0.23426200  1
  C  521  1  0.26587900  0.92773700  0.26273300  1
  C  523  1  0.23102200  0.11735200  0.23449100  1
  C  524  1  0.25810800  0.11891100  0.26303400  1
  C  531  1  0.74805000  0.44573000  0.52754700  1
  C  532  1  0.79660800  0.46126300  0.51367600  1
  C  533  1  0.79545600  0.48949900  0.48489900  1
  C  534  1  0.74694900  0.50163600  0.47018100  1
  C  535  1  0.69937000  0.48555400  0.48432300  1
  C  536  1  0.69990600  0.45809200  0.51267500  1
  C  538  1  0.88957000  0.49343500  0.48467100  1
  C  539  1  0.89111200  0.46599700  0.51309500  1
  C  546  1  0.75060200  0.50399500  0.02750900  1
  C  547  1  0.70205600  0.48841400  0.01364000  1
  C  548  1  0.70322800  0.46017100  0.98486700  1
  C  549  1  0.75174600  0.44806500  0.97015100  1
  C  550  1  0.79931400  0.46419800  0.98428900  1
  C  551  1  0.79875400  0.49166400  0.01263900  1
  C  553  1  0.60912200  0.45614300  0.98464100  1
  C  554  1  0.60755200  0.48359400  0.01306200  1
  C  561  1  0.25350600  0.28021900  0.91054900  1
  C  562  1  0.30098800  0.25193900  0.91655400  1
  C  563  1  0.30002600  0.19560100  0.91650100  1
  C  564  1  0.25282500  0.16752200  0.91030800  1
  C  565  1  0.20637000  0.19647700  0.90431900  1
  C  566  1  0.20668100  0.25172100  0.90452000  1
  C  568  1  0.39209600  0.19363800  0.92829000  1
  C  569  1  0.39349700  0.24894800  0.92823400  1
  C  576  1  0.24527900  0.66950200  0.41056900  1
  C  577  1  0.19775600  0.69773700  0.41653700  1
  C  578  1  0.19866400  0.75407700  0.41647700  1
  C  579  1  0.24584800  0.78219800  0.41031000  1
  C  580  1  0.29233900  0.75328800  0.40434000  1
  C  581  1  0.29208000  0.69804500  0.40454500  1
  C  583  1  0.10657500  0.75595900  0.42821700  1
  C  584  1  0.10522500  0.70064400  0.42816300  1
  C  591  1  0.94383100  0.98027500  0.16053500  1
  C  592  1  0.97221600  0.02775400  0.16639500  1
  C  593  1  0.02855600  0.02661100  0.16638900  1
  C  594  1  0.05651400  0.97926500  0.16039200  1
  C  595  1  0.02745100  0.93282600  0.15456200  1
  C  596  1  0.97221600  0.93330300  0.15471700  1
  C  598  1  0.03080100  0.11882200  0.17775900  1
  C  599  1  0.97549400  0.12044700  0.17762700  1
  C  606  1  0.55482100  0.96944300  0.66056700  1
  C  607  1  0.52646300  0.92194300  0.66641900  1
  C  608  1  0.47012300  0.92304300  0.66640500  1
  C  609  1  0.44213600  0.97036600  0.66039200  1
  C  610  1  0.47116400  0.01682300  0.65456400  1
  C  611  1  0.52640000  0.01639000  0.65473000  1
  C  613  1  0.46793800  0.83083100  0.67778100  1
  C  614  1  0.52324800  0.82924900  0.67765700  1
  C  621  1  0.24519700  0.28201600  0.58851500  1
  C  622  1  0.19772600  0.25384800  0.58229000  1
  C  623  1  0.19870100  0.19751400  0.58192800  1
  C  624  1  0.24591400  0.16932300  0.58789600  1
  C  625  1  0.29234400  0.19814900  0.59415200  1
  C  626  1  0.29201400  0.25339300  0.59436900  1
  C  628  1  0.10662900  0.19576900  0.57013200  1
  C  629  1  0.10522100  0.25107400  0.57057500  1
  C  636  1  0.25337200  0.66765600  0.08853900  1
  C  637  1  0.30085800  0.69579600  0.08230900  1
  C  638  1  0.29991500  0.75212900  0.08192900  1
  C  639  1  0.25271300  0.78035200  0.08787900  1
  C  640  1  0.20625800  0.75155700  0.09412200  1
  C  641  1  0.20655100  0.69631300  0.09432900  1
  C  643  1  0.39199500  0.75381300  0.07015500  1
  C  644  1  0.39337400  0.69851000  0.07062200  1
  C  651  1  0.55660800  0.98025600  0.33857100  1
  C  652  1  0.52833700  0.02771300  0.33244600  1
  C  653  1  0.47200000  0.02656400  0.33202600  1
  C  654  1  0.44392300  0.97922600  0.33783500  1
  C  655  1  0.47285200  0.93280600  0.34392700  1
  C  656  1  0.52808800  0.93329100  0.34421000  1
  C  658  1  0.46997700  0.11875500  0.32058900  1
  C  659  1  0.52528000  0.12037800  0.32111000  1
  C  666  1  0.94207600  0.96940000  0.83860400  1
  C  667  1  0.97033100  0.92193100  0.83246500  1
  C  668  1  0.02666400  0.92305500  0.83204300  1
  C  669  1  0.05476300  0.97037800  0.83785900  1
  C  670  1  0.02585700  0.01680700  0.84396100  1
  C  671  1  0.97062300  0.01634900  0.84422700  1
  C  673  1  0.02864300  0.83087000  0.82058700  1
  C  674  1  0.97334500  0.82927300  0.82111300  1
  C  681  1  0.74513900  0.66931600  0.08817900  1
  C  682  1  0.69768200  0.69762200  0.08214500  1
  C  683  1  0.69869100  0.75396300  0.08215600  1
  C  684  1  0.74591600  0.78201700  0.08832300  1
  C  685  1  0.79234400  0.75303200  0.09434400  1
  C  686  1  0.79198500  0.69778800  0.09419100  1
  C  688  1  0.60662500  0.75597500  0.07036100  1
  C  689  1  0.60517700  0.70066400  0.07045700  1
  C  696  1  0.75340300  0.28029100  0.58812300  1
  C  697  1  0.80089600  0.25202100  0.58212700  1
  C  698  1  0.79992900  0.19568300  0.58213800  1
  C  699  1  0.75271600  0.16759600  0.58828200  1
  C  700  1  0.70625700  0.19654000  0.59428000  1
  C  701  1  0.70657300  0.25178400  0.59412400  1
  C  703  1  0.89201900  0.19373900  0.57039800  1
  C  704  1  0.89342400  0.24905000  0.57049400  1
  C  711  1  0.75357200  0.66749400  0.41006300  1
  C  712  1  0.80100600  0.69569400  0.41633200  1
  C  713  1  0.79997200  0.75202600  0.41674700  1
  C  714  1  0.75273200  0.78018600  0.41079800  1
  C  715  1  0.70632800  0.75132400  0.40452900  1
  C  716  1  0.70671500  0.69608400  0.40425300  1
  C  718  1  0.89203500  0.75383300  0.42856700  1
  C  719  1  0.89349800  0.69853000  0.42807000  1
  C  726  1  0.74520600  0.28210500  0.91010500  1
  C  727  1  0.69773700  0.25394600  0.91635100  1
  C  728  1  0.69871500  0.19761400  0.91676400  1
  C  729  1  0.74593200  0.16941100  0.91082700  1
  C  730  1  0.79237100  0.19822700  0.90457400  1
  C  731  1  0.79203600  0.25347000  0.90430300  1
  C  733  1  0.60664100  0.19589300  0.92854900  1
  C  734  1  0.60522900  0.25119800  0.92805200  1
  C  741  1  0.44384800  0.48017800  0.66069300  1
  C  742  1  0.47218600  0.52770600  0.66648900  1
  C  743  1  0.52852200  0.52660100  0.66648200  1
  C  744  1  0.55649300  0.47924700  0.66053400  1
  C  745  1  0.52747700  0.43276000  0.65476700  1
  C  746  1  0.47224900  0.43319800  0.65492300  1
  C  748  1  0.53071200  0.61885300  0.67774100  1
  C  749  1  0.47540100  0.62043500  0.67761700  1
  C  756  1  0.05476900  0.46938100  0.16069100  1
  C  757  1  0.02640600  0.42186900  0.16648700  1
  C  758  1  0.97007500  0.42299700  0.16647000  1
  C  759  1  0.94212700  0.47036700  0.16052400  1
  C  760  1  0.97116300  0.51683800  0.15475300  1
  C  761  1  0.02639000  0.51638100  0.15494200  1
  C  763  1  0.96783800  0.33074900  0.17772600  1
  C  764  1  0.02314500  0.32914000  0.17761300  1
  C  771  1  0.05660000  0.48022500  0.83844100  1
  C  772  1  0.02835700  0.52771800  0.83237000  1
  C  773  1  0.97203100  0.52658200  0.83194500  1
  C  774  1  0.94396100  0.47922300  0.83769600  1
  C  775  1  0.97285900  0.43276800  0.84373400  1
  C  776  1  0.02808300  0.43324100  0.84402100  1
  C  778  1  0.97002700  0.61880600  0.82060600  1
  C  779  1  0.02532600  0.62041500  0.82113100  1
  C  786  1  0.44210100  0.46941700  0.33843500  1
  C  787  1  0.47035600  0.42192800  0.33236700  1
  C  788  1  0.52668400  0.42307200  0.33195600  1
  C  789  1  0.55474600  0.47043400  0.33771900  1
  C  790  1  0.52583200  0.51688600  0.34375200  1
  C  791  1  0.47060400  0.51640900  0.34400900  1
  C  793  1  0.52870800  0.33085000  0.32061200  1
  C  794  1  0.47340900  0.32923400  0.32112400  1
  N  327  1  0.22001700  0.56829900  0.77695200  1
  N  330  1  0.27312300  0.57126600  0.72198100  1
  N  342  1  0.27866300  0.38137800  0.27696800  1
  N  345  1  0.22552500  0.37836700  0.22201100  1
  N  357  1  0.65476900  0.94586700  0.02710200  1
  N  360  1  0.65180200  0.99842400  0.97193200  1
  N  372  1  0.84391100  0.00366500  0.52710100  1
  N  375  1  0.84683800  0.95110500  0.47193100  1
  N  387  1  0.77811600  0.37971900  0.22153000  1
  N  390  1  0.72567200  0.37679300  0.27673500  1
  N  402  1  0.72052900  0.56985000  0.72153300  1
  N  405  1  0.77300300  0.57278100  0.77672600  1
  N  417  1  0.34393400  0.00367100  0.97154500  1
  N  420  1  0.34686200  0.95131000  0.02678000  1
  N  432  1  0.15469800  0.94613500  0.47151100  1
  N  435  1  0.15179700  0.99846400  0.52675800  1
  N  447  1  0.71998400  0.06828000  0.27696100  1
  N  450  1  0.77310200  0.07127600  0.22199500  1
  N  462  1  0.77869900  0.88141600  0.77695700  1
  N  465  1  0.72555800  0.87843000  0.72199900  1
  N  477  1  0.15666200  0.44545700  0.52688700  1
  N  480  1  0.15371900  0.49884700  0.47200400  1
  N  492  1  0.34199300  0.50423600  0.02694300  1
  N  495  1  0.34499400  0.45086100  0.97205800  1
  N  507  1  0.27818600  0.87978300  0.72154900  1
  N  510  1  0.22572200  0.87684800  0.77674700  1
  N  522  1  0.22050200  0.06984500  0.22152000  1
  N  525  1  0.27298900  0.07279400  0.27671100  1
  N  537  1  0.84206900  0.50408600  0.47173100  1
  N  540  1  0.84498800  0.45092500  0.52668800  1
  N  552  1  0.65663000  0.44553200  0.97170300  1
  N  555  1  0.65366400  0.49871300  0.02665300  1
  N  567  1  0.34573400  0.16924300  0.92230100  1
  N  570  1  0.34841600  0.27622000  0.92221700  1
  N  582  1  0.15292300  0.78039600  0.42225100  1
  N  585  1  0.15034200  0.67341500  0.42217400  1
  N  597  1  0.05505300  0.07229800  0.17201100  1
  N  600  1  0.94808000  0.07534100  0.17183700  1
  N  612  1  0.44365500  0.87733800  0.67202300  1
  N  615  1  0.55063200  0.87437500  0.67187100  1
  N  627  1  0.15299800  0.17126600  0.57594100  1
  N  630  1  0.15030000  0.27823200  0.57678200  1
  N  642  1  0.34563500  0.77834800  0.07594300  1
  N  645  1  0.34827600  0.67138300  0.07682700  1
  N  657  1  0.44561900  0.07223700  0.32618400  1
  N  660  1  0.55257600  0.07528800  0.32713400  1
  N  672  1  0.05302600  0.87737300  0.82618900  1
  N  675  1  0.94606800  0.87437100  0.82714600  1
  N  687  1  0.65300500  0.78034400  0.07633400  1
  N  690  1  0.65023600  0.67336700  0.07649400  1
  N  702  1  0.84564700  0.16933500  0.57634500  1
  N  705  1  0.84833300  0.27631100  0.57650400  1
  N  717  1  0.84564700  0.77830500  0.42276700  1
  N  720  1  0.84845100  0.67134400  0.42182600  1
  N  732  1  0.65300900  0.17137800  0.92276500  1
  N  735  1  0.65030700  0.27834200  0.92182900  1
  N  747  1  0.55499400  0.57232300  0.67204800  1
  N  750  1  0.44801700  0.57529300  0.67187800  1
  N  762  1  0.94357900  0.37728800  0.17203200  1
  N  765  1  0.05055300  0.37427100  0.17187900  1
  N  777  1  0.94565400  0.57228000  0.82615000  1
  N  780  1  0.05261300  0.57530100  0.82711100  1
  N  792  1  0.55306900  0.37738100  0.32616500  1
  N  795  1  0.44610800  0.37434400  0.32709900  1
  O  8  1  0.11381600  0.49705200  0.78242600  1
  O  15  1  0.27033000  0.33669300  0.96701200  1
  O  28  1  0.38485800  0.45258500  0.28240400  1
  O  35  1  0.22843000  0.61298400  0.46701600  1
  O  48  1  0.72684000  0.83959200  0.03254400  1
  O  55  1  0.88722700  0.99730800  0.21689300  1
  O  68  1  0.77185600  0.10997200  0.53252100  1
  O  75  1  0.61145300  0.95245000  0.71692300  1
  O  88  1  0.38714700  0.49731700  0.71698400  1
  O  95  1  0.22862100  0.33907700  0.53234600  1
  O  108  1  0.11148600  0.45224200  0.21699300  1
  O  115  1  0.26997700  0.61058500  0.03237400  1
  O  128  1  0.77211600  0.83719400  0.46685700  1
  O  135  1  0.61380000  0.99698800  0.28250700  1
  O  148  1  0.72649700  0.11235300  0.96686700  1
  O  155  1  0.88493900  0.95271100  0.78250700  1
  O  168  1  0.88436300  0.45126800  0.21617900  1
  O  175  1  0.72835100  0.61286100  0.03172000  1
  O  188  1  0.61427000  0.49833100  0.71619900  1
  O  195  1  0.77023800  0.33683000  0.53169700  1
  O  208  1  0.27186600  0.10993000  0.96607400  1
  O  215  1  0.11187100  0.95114100  0.78183800  1
  O  228  1  0.22673700  0.83980900  0.46606100  1
  O  235  1  0.38682400  0.99844400  0.28181300  1
  O  248  1  0.61190700  0.45107100  0.28175500  1
  O  255  1  0.77011600  0.61046300  0.46622700  1
  O  268  1  0.88676100  0.49856700  0.78173500  1
  O  275  1  0.72864300  0.33921000  0.96624600  1
  O  288  1  0.22655600  0.11228700  0.53186500  1
  O  295  1  0.38442400  0.95139700  0.71610100  1
  O  308  1  0.27211400  0.83739900  0.03184900  1
  O  315  1  0.11421800  0.99822300  0.21611200  1
  O  334  1  0.26908100  0.66435800  0.72208100  1
  O  349  1  0.22958100  0.28527700  0.22213200  1
  O  364  1  0.55870600  0.99443200  0.97207200  1
  O  379  1  0.93993400  0.95508100  0.47205500  1
  O  394  1  0.72959300  0.28369600  0.27659500  1
  O  409  1  0.76908200  0.66588000  0.77658400  1
  O  424  1  0.43995900  0.95530200  0.02665600  1
  O  439  1  0.05869800  0.99454700  0.52662500  1
  O  454  1  0.76900000  0.16436400  0.22209400  1
  O  469  1  0.72961300  0.78534200  0.72210700  1
  O  484  1  0.06062500  0.49486300  0.47210400  1
  O  499  1  0.43808500  0.45489300  0.97217700  1
  O  514  1  0.22969200  0.78375200  0.77661600  1
  O  529  1  0.26905500  0.16589100  0.27656000  1
  O  544  1  0.93808000  0.45488100  0.52658800  1
  O  559  1  0.56057600  0.49467000  0.02655300  1
  O  574  1  0.43932800  0.27448800  0.93399000  1
  O  589  1  0.05940900  0.67506300  0.43389300  1
  O  604  1  0.95019000  0.16655700  0.18302500  1
  O  619  1  0.54858400  0.78316100  0.68306500  1
  O  634  1  0.05938400  0.27671900  0.56500400  1
  O  649  1  0.43920100  0.67283500  0.06507500  1
  O  664  1  0.55068300  0.16648100  0.31585300  1
  O  679  1  0.94791800  0.78318400  0.81584700  1
  O  694  1  0.55932900  0.67515000  0.06471700  1
  O  709  1  0.93926300  0.27459900  0.56478200  1
  O  724  1  0.93935800  0.67291800  0.43362500  1
  O  739  1  0.55938900  0.27685400  0.93359100  1
  O  754  1  0.45006500  0.66654300  0.68297600  1
  O  769  1  0.04845800  0.28302200  0.18297600  1
  O  784  1  0.05074100  0.66652300  0.81592200  1
  O  799  1  0.44800200  0.28312200  0.31590000  1
