# generated using pymatgen
data_H22C41(N3O2)2
_symmetry_space_group_name_H-M   'P 1'
_cell_length_a   30.72680000
_cell_length_b   45.04630000
_cell_length_c   45.04630000
_cell_angle_alpha   90.00000000
_cell_angle_beta   90.00000000
_cell_angle_gamma   90.00000000
_symmetry_Int_Tables_number   1
_chemical_formula_structural   H22C41(N3O2)2
_chemical_formula_sum   'H352 C656 N96 O64'
_cell_volume   62349.87444433
_cell_formula_units_Z   16
loop_
 _symmetry_equiv_pos_site_id
 _symmetry_equiv_pos_as_xyz
  1  'x, y, z'
loop_
 _atom_site_type_symbol
 _atom_site_label
 _atom_site_symmetry_multiplicity
 _atom_site_fract_x
 _atom_site_fract_y
 _atom_site_fract_z
 _atom_site_occupancy
  H  7  1  0.01289800  0.05177000  0.10027200  1
  H  14  1  0.02535700  0.82437700  0.83645600  1
  H  15  1  0.03082400  0.86240000  0.87249200  1
  H  16  1  0.02674100  0.90402000  0.90139100  1
  H  17  1  0.01325900  0.94381200  0.93405300  1
  H  18  1  0.01302200  0.36972200  0.41916200  1
  H  19  1  0.01583700  0.41389500  0.44780200  1
  H  23  1  0.02482300  0.96349000  0.01520400  1
  H  24  1  0.05952300  0.00330600  0.03957600  1
  H  26  1  0.01144800  0.07575300  0.04535400  1
  H  30  1  0.04474100  0.80510800  0.74837500  1
  H  32  1  0.04546700  0.68637200  0.73554000  1
  H  36  1  0.02530700  0.31326700  0.24438000  1
  H  38  1  0.03375700  0.19583000  0.24070800  1
  H  42  1  0.03930000  0.45960800  0.51368300  1
  H  44  1  0.03673300  0.57852500  0.52422300  1
  H  53  1  0.07487600  0.50155300  0.53423800  1
  H  56  1  0.08071300  0.76421200  0.72621800  1
  H  63  1  0.12899600  0.09782400  0.07871700  1
  H  64  1  0.11687400  0.18965500  0.16809500  1
  H  65  1  0.12410100  0.16734400  0.07846800  1
  H  66  1  0.14053100  0.07805800  0.17097800  1
  H  72  1  0.13479100  0.59121900  0.68245900  1
  H  73  1  0.13528100  0.68558600  0.59170700  1
  H  74  1  0.14372800  0.67739900  0.67656900  1
  H  75  1  0.13734200  0.58490800  0.58201100  1
  H  94  1  0.99230100  0.16667000  0.20063900  1
  H  95  1  0.99587100  0.12040400  0.17571100  1
  H  96  1  0.00579700  0.07981800  0.14448300  1
  H  97  1  0.24231100  0.21294800  0.09521000  1
  H  98  1  0.25236200  0.18559000  0.13958000  1
  H  99  1  0.26309600  0.14647500  0.17238800  1
  H  100  1  0.26684300  0.10165500  0.19985600  1
  H  127  1  0.50274400  0.57195900  0.07890800  1
  H  128  1  0.49155200  0.60682700  0.11729900  1
  H  129  1  0.48929300  0.64646700  0.14910300  1
  H  130  1  0.49717900  0.68466700  0.18457300  1
  H  131  1  0.63449500  0.67941900  0.17734500  1
  H  132  1  0.63854100  0.58844400  0.08113100  1
  H  133  1  0.62794700  0.58134500  0.17362900  1
  H  134  1  0.76515000  0.57361700  0.17973100  1
  H  135  1  0.77388500  0.61460200  0.14753500  1
  H  136  1  0.62614800  0.68042300  0.08554500  1
  H  137  1  0.77232000  0.65808100  0.12108000  1
  H  138  1  0.76200000  0.69692600  0.08656700  1
  H  168  1  0.77375800  0.08737500  0.68772600  1
  H  169  1  0.77702900  0.12602600  0.65215200  1
  H  170  1  0.76953100  0.16455900  0.61901700  1
  H  171  1  0.75380800  0.19750100  0.57964000  1
  H  172  1  0.62030600  0.17387100  0.58342300  1
  H  173  1  0.63654600  0.08459100  0.68007200  1
  H  174  1  0.63253300  0.09465100  0.57976400  1
  H  175  1  0.51115400  0.05497100  0.60037000  1
  H  176  1  0.50495700  0.08500200  0.64337900  1
  H  177  1  0.62774600  0.18899000  0.66800900  1
  H  178  1  0.49917000  0.12604800  0.67429100  1
  H  179  1  0.50037500  0.17204600  0.69968700  1
  H  193  1  0.26657200  0.67486600  0.56492400  1
  H  194  1  0.27227700  0.63115800  0.59367900  1
  H  195  1  0.26891900  0.59048000  0.62468700  1
  H  196  1  0.26184200  0.55843700  0.66604600  1
  H  197  1  0.00746300  0.69149100  0.68189900  1
  H  198  1  0.99537600  0.65425000  0.64601200  1
  H  199  1  0.99253200  0.61355600  0.61535600  1
  H  200  1  0.00020300  0.57635000  0.57855200  1
  H  227  1  0.51547500  0.94311300  0.43146300  1
  H  228  1  0.52552200  0.90323600  0.39807100  1
  H  229  1  0.52556400  0.86138800  0.36910900  1
  H  230  1  0.51610700  0.82320100  0.33370400  1
  H  231  1  0.37939900  0.83570800  0.33592600  1
  H  232  1  0.37853300  0.93328300  0.42540900  1
  H  233  1  0.38762300  0.83854300  0.43012500  1
  H  234  1  0.25056200  0.82873700  0.43430000  1
  H  235  1  0.24182400  0.86480200  0.39668800  1
  H  236  1  0.39059700  0.92867000  0.33333333  1
  H  237  1  0.24287700  0.90346500  0.36353100  1
  H  238  1  0.25395800  0.93941200  0.32606000  1
  H  268  1  0.87713700  0.93167600  0.92418800  1
  H  269  1  0.88832900  0.83421100  0.83455300  1
  H  270  1  0.88832600  0.93565200  0.84237400  1
  H  271  1  0.75880400  0.92312700  0.81257100  1
  H  272  1  0.75251600  0.87986900  0.84189900  1
  H  273  1  0.88598600  0.84332900  0.93493200  1
  H  274  1  0.75444000  0.84054700  0.87455000  1
  H  275  1  0.75972500  0.80991900  0.91706600  1
  H  305  1  0.76342500  0.46382800  0.34750100  1
  H  306  1  0.75429000  0.43553700  0.39139100  1
  H  307  1  0.74370600  0.39542500  0.42316900  1
  H  308  1  0.74004500  0.34991400  0.44948200  1
  H  309  1  0.86534000  0.32632900  0.41847000  1
  H  310  1  0.88006000  0.41750600  0.32789000  1
  H  311  1  0.87055000  0.34728100  0.32770100  1
  H  312  1  0.99134400  0.30383000  0.34125600  1
  H  313  1  0.00265300  0.33118800  0.38550800  1
  H  314  1  0.88791600  0.43597000  0.42109200  1
  H  344  1  0.23943800  0.32933000  0.93183600  1
  H  345  1  0.23553200  0.37187600  0.90108300  1
  H  346  1  0.24273200  0.41536400  0.87480300  1
  H  347  1  0.25706100  0.45239900  0.83900900  1
  H  348  1  0.38993700  0.42699000  0.83611600  1
  H  349  1  0.37670700  0.32845100  0.92391700  1
  H  350  1  0.38542000  0.43530100  0.92053600  1
  H  351  1  0.51300500  0.41602300  0.95032800  1
  H  352  1  0.51385800  0.37208400  0.92167900  1
  H  353  1  0.37759200  0.34619300  0.82684800  1
  H  354  1  0.50869000  0.33455400  0.88671700  1
  H  355  1  0.50120800  0.30728200  0.84201900  1
  H  364  1  0.97226600  0.06328500  0.99967200  1
  H  369  1  0.96866700  0.94385400  0.98655900  1
  H  375  1  0.48140400  0.70570800  0.26835100  1
  H  377  1  0.53130500  0.80497500  0.24668400  1
  H  378  1  0.56800000  0.76394400  0.22527300  1
  H  383  1  0.53588100  0.68585900  0.23741400  1
  H  385  1  0.47970900  0.82532700  0.27885800  1
  H  391  1  0.76707400  0.20376000  0.48964100  1
  H  393  1  0.71353100  0.30240200  0.51052400  1
  H  394  1  0.67725600  0.26090300  0.53130700  1
  H  399  1  0.71888400  0.18437700  0.52549500  1
  H  401  1  0.78088600  0.32204500  0.49062900  1
  H  407  1  0.29068200  0.56070600  0.76564600  1
  H  409  1  0.24298300  0.46047600  0.74613500  1
  H  410  1  0.20861400  0.50030800  0.72149000  1
  H  415  1  0.25079400  0.57564600  0.72239500  1
  H  417  1  0.28792400  0.44200800  0.78322600  1
  H  423  1  0.53515900  0.31498300  0.74442800  1
  H  425  1  0.47756400  0.21613900  0.75823800  1
  H  426  1  0.44205700  0.25676500  0.78094400  1
  H  431  1  0.49215100  0.32992300  0.78642500  1
  H  433  1  0.54731400  0.19731300  0.74086300  1
  H  439  1  0.23620800  0.81251600  0.52278500  1
  H  441  1  0.28079200  0.71306300  0.49670500  1
  H  442  1  0.31947100  0.75403600  0.47689600  1
  H  446  1  0.28651300  0.83197100  0.48825600  1
  H  448  1  0.21744300  0.69370700  0.52045400  1
  H  454  1  0.72475900  0.45210900  0.24773400  1
  H  456  1  0.78074200  0.55133800  0.26142200  1
  H  457  1  0.81454000  0.51137700  0.28615900  1
  H  462  1  0.76466200  0.43906900  0.29243500  1
  H  464  1  0.72419200  0.57131900  0.23316300  1
  H  470  1  0.47449200  0.06237300  0.50048300  1
  H  472  1  0.52913100  0.96285900  0.51470400  1
  H  473  1  0.56302000  0.00268900  0.53962800  1
  H  478  1  0.51508800  0.07598600  0.54443600  1
  H  480  1  0.47388600  0.94315700  0.48509900  1
  H  484  1  0.99276300  0.70589200  0.76788200  1
  H  489  1  0.99338400  0.82531400  0.78087500  1
  H  495  1  0.28003500  0.20163600  0.99725900  1
  H  497  1  0.21987600  0.29999800  0.00903300  1
  H  498  1  0.18637500  0.25963300  0.03334600  1
  H  503  1  0.23845300  0.18773400  0.04045000  1
  H  505  1  0.28007600  0.32064200  0.98414000  1
  H  509  1  0.96324100  0.21549000  0.25672100  1
  H  510  1  0.92909800  0.25658700  0.27955000  1
  H  512  1  0.98233200  0.32870700  0.28607300  1
  H  518  1  0.72761300  0.81219800  0.01633800  1
  H  520  1  0.77782300  0.71239000  0.99757500  1
  H  521  1  0.81240900  0.75252200  0.97359000  1
  H  526  1  0.76830700  0.82727000  0.97325500  1
  H  528  1  0.72829000  0.69293000  0.03116100  1
  H  534  1  0.48842100  0.55979800  0.98852400  1
  H  536  1  0.53511000  0.46074600  0.01438400  1
  H  537  1  0.57309000  0.50202600  0.03410300  1
  H  542  1  0.53661000  0.57938400  0.02440600  1
  H  544  1  0.46995200  0.44131300  0.99250600  1
  H  550  1  0.78871600  0.06177400  0.77305200  1
  H  552  1  0.74569500  0.96255700  0.74480800  1
  H  553  1  0.70705100  0.00374200  0.72527700  1
  H  558  1  0.73606500  0.08177300  0.74034100  1
  H  560  1  0.80841500  0.94304000  0.76931100  1
  H  566  1  0.24149400  0.95612200  0.23964900  1
  H  568  1  0.29242600  0.05477500  0.26341600  1
  H  569  1  0.32947800  0.01309300  0.28332000  1
  H  573  1  0.29315100  0.93575800  0.27276400  1
  H  575  1  0.22660200  0.07470600  0.24213600  1
  H  579  1  0.98563500  0.55782700  0.49081500  1
  H  584  1  0.97491800  0.43888200  0.49141500  1
  H  591  1  0.40343700  0.05177000  0.10027200  1
  H  598  1  0.41589600  0.82437700  0.83645600  1
  H  599  1  0.42136300  0.86240000  0.87249200  1
  H  600  1  0.41728000  0.90402000  0.90139100  1
  H  601  1  0.40379800  0.94381200  0.93405300  1
  H  602  1  0.40356100  0.36972200  0.41916200  1
  H  603  1  0.40637600  0.41389500  0.44780200  1
  H  607  1  0.41536200  0.96349000  0.01520400  1
  H  608  1  0.45006200  0.00330600  0.03957600  1
  H  610  1  0.40198700  0.07575300  0.04535400  1
  H  614  1  0.43528000  0.80510800  0.74837500  1
  H  616  1  0.43600600  0.68637200  0.73554000  1
  H  620  1  0.41584600  0.31326700  0.24438000  1
  H  622  1  0.42429600  0.19583000  0.24070800  1
  H  626  1  0.42983900  0.45960800  0.51368300  1
  H  628  1  0.42727200  0.57852500  0.52422300  1
  H  637  1  0.46541500  0.50155300  0.53423800  1
  H  640  1  0.47125200  0.76421200  0.72621800  1
  H  647  1  0.51953500  0.09782400  0.07871700  1
  H  648  1  0.50741300  0.18965500  0.16809500  1
  H  649  1  0.51464000  0.16734400  0.07846800  1
  H  650  1  0.53107000  0.07805800  0.17097800  1
  H  656  1  0.52533000  0.59121900  0.68245900  1
  H  657  1  0.52582000  0.68558600  0.59170700  1
  H  658  1  0.53426700  0.67739900  0.67656900  1
  H  659  1  0.52788100  0.58490800  0.58201100  1
  H  678  1  0.38284000  0.16667000  0.20063900  1
  H  679  1  0.38641000  0.12040400  0.17571100  1
  H  680  1  0.39633600  0.07981800  0.14448300  1
  H  681  1  0.63285000  0.21294800  0.09521000  1
  H  682  1  0.64290100  0.18559000  0.13958000  1
  H  683  1  0.65363500  0.14647500  0.17238800  1
  H  684  1  0.65738200  0.10165500  0.19985600  1
  H  711  1  0.89328300  0.57195900  0.07890800  1
  H  712  1  0.88209100  0.60682700  0.11729900  1
  H  713  1  0.87983200  0.64646700  0.14910300  1
  H  714  1  0.88771800  0.68466700  0.18457300  1
  H  715  1  0.02503360  0.67941900  0.17734500  1
  H  716  1  0.02907960  0.58844400  0.08113100  1
  H  717  1  0.01848560  0.58134500  0.17362900  1
  H  718  1  0.15568900  0.57361700  0.17973100  1
  H  719  1  0.16442400  0.61460200  0.14753500  1
  H  720  1  0.01668660  0.68042300  0.08554500  1
  H  721  1  0.16285900  0.65808100  0.12108000  1
  H  722  1  0.15253900  0.69692600  0.08656700  1
  H  752  1  0.16429700  0.08737500  0.68772600  1
  H  753  1  0.16756800  0.12602600  0.65215200  1
  H  754  1  0.16007000  0.16455900  0.61901700  1
  H  755  1  0.14434700  0.19750100  0.57964000  1
  H  756  1  0.01084460  0.17387100  0.58342300  1
  H  757  1  0.02708460  0.08459100  0.68007200  1
  H  758  1  0.02307160  0.09465100  0.57976400  1
  H  759  1  0.90169300  0.05497100  0.60037000  1
  H  760  1  0.89549600  0.08500200  0.64337900  1
  H  761  1  0.01828460  0.18899000  0.66800900  1
  H  762  1  0.88970900  0.12604800  0.67429100  1
  H  763  1  0.89091400  0.17204600  0.69968700  1
  H  777  1  0.65711100  0.67486600  0.56492400  1
  H  778  1  0.66281600  0.63115800  0.59367900  1
  H  779  1  0.65945800  0.59048000  0.62468700  1
  H  780  1  0.65238100  0.55843700  0.66604600  1
  H  781  1  0.39800200  0.69149100  0.68189900  1
  H  782  1  0.38591500  0.65425000  0.64601200  1
  H  783  1  0.38307100  0.61355600  0.61535600  1
  H  784  1  0.39074200  0.57635000  0.57855200  1
  H  811  1  0.90601400  0.94311300  0.43146300  1
  H  812  1  0.91606100  0.90323600  0.39807100  1
  H  813  1  0.91610300  0.86138800  0.36910900  1
  H  814  1  0.90664600  0.82320100  0.33370400  1
  H  815  1  0.76993800  0.83570800  0.33592600  1
  H  816  1  0.76907200  0.93328300  0.42540900  1
  H  817  1  0.77816200  0.83854300  0.43012500  1
  H  818  1  0.64110100  0.82873700  0.43430000  1
  H  819  1  0.63236300  0.86480200  0.39668800  1
  H  820  1  0.78113600  0.92867000  0.33333333  1
  H  821  1  0.63341600  0.90346500  0.36353100  1
  H  822  1  0.64449700  0.93941200  0.32606000  1
  H  852  1  0.26767600  0.93167600  0.92418800  1
  H  853  1  0.27886800  0.83421100  0.83455300  1
  H  854  1  0.27886500  0.93565200  0.84237400  1
  H  855  1  0.14934300  0.92312700  0.81257100  1
  H  856  1  0.14305500  0.87986900  0.84189900  1
  H  857  1  0.27652500  0.84332900  0.93493200  1
  H  858  1  0.14497900  0.84054700  0.87455000  1
  H  859  1  0.15026400  0.80991900  0.91706600  1
  H  889  1  0.15396400  0.46382800  0.34750100  1
  H  890  1  0.14482900  0.43553700  0.39139100  1
  H  891  1  0.13424500  0.39542500  0.42316900  1
  H  892  1  0.13058400  0.34991400  0.44948200  1
  H  893  1  0.25587900  0.32632900  0.41847000  1
  H  894  1  0.27059900  0.41750600  0.32789000  1
  H  895  1  0.26108900  0.34728100  0.32770100  1
  H  896  1  0.38188300  0.30383000  0.34125600  1
  H  897  1  0.39319200  0.33118800  0.38550800  1
  H  898  1  0.27845500  0.43597000  0.42109200  1
  H  928  1  0.62997700  0.32933000  0.93183600  1
  H  929  1  0.62607100  0.37187600  0.90108300  1
  H  930  1  0.63327100  0.41536400  0.87480300  1
  H  931  1  0.64760000  0.45239900  0.83900900  1
  H  932  1  0.78047600  0.42699000  0.83611600  1
  H  933  1  0.76724600  0.32845100  0.92391700  1
  H  934  1  0.77595900  0.43530100  0.92053600  1
  H  935  1  0.90354400  0.41602300  0.95032800  1
  H  936  1  0.90439700  0.37208400  0.92167900  1
  H  937  1  0.76813100  0.34619300  0.82684800  1
  H  938  1  0.89922900  0.33455400  0.88671700  1
  H  939  1  0.89174700  0.30728200  0.84201900  1
  H  948  1  0.36280500  0.06328500  0.99967200  1
  H  953  1  0.35920600  0.94385400  0.98655900  1
  H  959  1  0.87194300  0.70570800  0.26835100  1
  H  961  1  0.92184400  0.80497500  0.24668400  1
  H  962  1  0.95853900  0.76394400  0.22527300  1
  H  967  1  0.92642000  0.68585900  0.23741400  1
  H  969  1  0.87024800  0.82532700  0.27885800  1
  H  975  1  0.15761300  0.20376000  0.48964100  1
  H  977  1  0.10407000  0.30240200  0.51052400  1
  H  978  1  0.06779460  0.26090300  0.53130700  1
  H  983  1  0.10942300  0.18437700  0.52549500  1
  H  985  1  0.17142500  0.32204500  0.49062900  1
  H  991  1  0.68122100  0.56070600  0.76564600  1
  H  993  1  0.63352200  0.46047600  0.74613500  1
  H  994  1  0.59915300  0.50030800  0.72149000  1
  H  999  1  0.64133300  0.57564600  0.72239500  1
  H  1001  1  0.67846300  0.44200800  0.78322600  1
  H  1007  1  0.92569800  0.31498300  0.74442800  1
  H  1009  1  0.86810300  0.21613900  0.75823800  1
  H  1010  1  0.83259600  0.25676500  0.78094400  1
  H  1015  1  0.88269000  0.32992300  0.78642500  1
  H  1017  1  0.93785300  0.19731300  0.74086300  1
  H  1023  1  0.62674700  0.81251600  0.52278500  1
  H  1025  1  0.67133100  0.71306300  0.49670500  1
  H  1026  1  0.71001000  0.75403600  0.47689600  1
  H  1030  1  0.67705200  0.83197100  0.48825600  1
  H  1032  1  0.60798200  0.69370700  0.52045400  1
  H  1038  1  0.11529800  0.45210900  0.24773400  1
  H  1040  1  0.17128100  0.55133800  0.26142200  1
  H  1041  1  0.20507900  0.51137700  0.28615900  1
  H  1046  1  0.15520100  0.43906900  0.29243500  1
  H  1048  1  0.11473100  0.57131900  0.23316300  1
  H  1054  1  0.86503100  0.06237300  0.50048300  1
  H  1056  1  0.91967000  0.96285900  0.51470400  1
  H  1057  1  0.95355900  0.00268900  0.53962800  1
  H  1062  1  0.90562700  0.07598600  0.54443600  1
  H  1064  1  0.86442500  0.94315700  0.48509900  1
  H  1068  1  0.38330200  0.70589200  0.76788200  1
  H  1073  1  0.38392300  0.82531400  0.78087500  1
  H  1079  1  0.67057400  0.20163600  0.99725900  1
  H  1081  1  0.61041500  0.29999800  0.00903300  1
  H  1082  1  0.57691400  0.25963300  0.03334600  1
  H  1087  1  0.62899200  0.18773400  0.04045000  1
  H  1089  1  0.67061500  0.32064200  0.98414000  1
  H  1093  1  0.35378000  0.21549000  0.25672100  1
  H  1094  1  0.31963700  0.25658700  0.27955000  1
  H  1096  1  0.37287100  0.32870700  0.28607300  1
  H  1102  1  0.11815200  0.81219800  0.01633800  1
  H  1104  1  0.16836200  0.71239000  0.99757500  1
  H  1105  1  0.20294800  0.75252200  0.97359000  1
  H  1110  1  0.15884600  0.82727000  0.97325500  1
  H  1112  1  0.11882900  0.69293000  0.03116100  1
  H  1118  1  0.87896000  0.55979800  0.98852400  1
  H  1120  1  0.92564900  0.46074600  0.01438400  1
  H  1121  1  0.96362900  0.50202600  0.03410300  1
  H  1126  1  0.92714900  0.57938400  0.02440600  1
  H  1128  1  0.86049100  0.44131300  0.99250600  1
  H  1134  1  0.17925500  0.06177400  0.77305200  1
  H  1136  1  0.13623400  0.96255700  0.74480800  1
  H  1137  1  0.09758960  0.00374200  0.72527700  1
  H  1142  1  0.12660400  0.08177300  0.74034100  1
  H  1144  1  0.19895400  0.94304000  0.76931100  1
  H  1150  1  0.63203300  0.95612200  0.23964900  1
  H  1152  1  0.68296500  0.05477500  0.26341600  1
  H  1153  1  0.72001700  0.01309300  0.28332000  1
  H  1157  1  0.68369000  0.93575800  0.27276400  1
  H  1159  1  0.61714100  0.07470600  0.24213600  1
  H  1163  1  0.37617400  0.55782700  0.49081500  1
  H  1168  1  0.36545700  0.43888200  0.49141500  1
  C  1  1  0.05954200  0.12721700  0.15842800  1
  C  2  1  0.03245600  0.08308700  0.13134000  1
  C  3  1  0.03669300  0.06696100  0.10513300  1
  C  4  1  0.05522400  0.18200900  0.18803300  1
  C  5  1  0.02053100  0.16136200  0.18977600  1
  C  6  1  0.02250000  0.13396100  0.17537900  1
  C  9  1  0.06059100  0.62156600  0.61969900  1
  C  10  1  0.03403500  0.68044700  0.67366300  1
  C  11  1  0.02655000  0.65852500  0.65260900  1
  C  12  1  0.02302700  0.60809300  0.60820200  1
  C  13  1  0.02782500  0.58626000  0.58657900  1
  C  20  1  0.02056300  0.03776600  0.02137600  1
  C  21  1  0.01317500  0.98442400  0.01120000  1
  C  22  1  0.03464200  0.00816400  0.02526400  1
  C  25  1  0.03395200  0.06046600  0.04066300  1
  C  27  1  0.04139300  0.73066000  0.74549100  1
  C  28  1  0.03284300  0.78432700  0.75277500  1
  C  29  1  0.05483700  0.76009200  0.73991700  1
  C  31  1  0.05840400  0.70605900  0.73036900  1
  C  33  1  0.01098200  0.29281000  0.24611800  1
  C  34  1  0.03239000  0.26828000  0.23262500  1
  C  35  1  0.01551800  0.23928300  0.23679200  1
  C  37  1  0.03605700  0.21334900  0.22723300  1
  C  39  1  0.03449900  0.53411300  0.51414900  1
  C  40  1  0.02758200  0.48020900  0.50829500  1
  C  41  1  0.04913400  0.50503200  0.52024100  1
  C  43  1  0.04991400  0.55896300  0.52952500  1
  C  45  1  0.06360800  0.10490700  0.13766600  1
  C  46  1  0.07007900  0.07342700  0.08442700  1
  C  48  1  0.06245100  0.64343900  0.64079500  1
  C  49  1  0.06940300  0.57835900  0.57561300  1
  C  54  1  0.07653800  0.68672300  0.68406400  1
  C  57  1  0.15555000  0.15562600  0.11884700  1
  C  58  1  0.15053500  0.17139400  0.09160100  1
  C  59  1  0.09473500  0.14670500  0.15552000  1
  C  60  1  0.10079200  0.10972000  0.12015600  1
  C  61  1  0.10370100  0.09375000  0.09284800  1
  C  62  1  0.09232400  0.17455800  0.17052900  1
  C  67  1  0.12846000  0.13298200  0.13532200  1
  C  68  1  0.10273500  0.61350100  0.61129200  1
  C  69  1  0.10580500  0.64989600  0.64819400  1
  C  70  1  0.11272600  0.67210200  0.67035100  1
  C  71  1  0.10707600  0.59133900  0.58883700  1
  C  76  1  0.13559700  0.63094000  0.62920200  1
  C  79  1  0.16301700  0.11991100  0.15535700  1
  C  80  1  0.16550200  0.09299400  0.17197300  1
  C  81  1  0.16673400  0.64725900  0.60900100  1
  C  82  1  0.16645500  0.61007100  0.64493900  1
  C  83  1  0.16277300  0.59112600  0.67022000  1
  C  84  1  0.16346300  0.67356100  0.59148300  1
  C  86  1  0.19881600  0.13906100  0.15640200  1
  C  87  1  0.19383300  0.16071600  0.13513400  1
  C  88  1  0.18368200  0.19141600  0.08180800  1
  C  89  1  0.21874300  0.19797100  0.10114700  1
  C  90  1  0.22475300  0.18223100  0.12740900  1
  C  91  1  0.23633800  0.13305300  0.17313900  1
  C  92  1  0.23834900  0.10656500  0.18912300  1
  C  93  1  0.20320300  0.08623000  0.18915300  1
  C  103  1  0.66258200  0.65219900  0.11413100  1
  C  104  1  0.70533300  0.64597800  0.12297600  1
  C  105  1  0.70593800  0.62253600  0.14235700  1
  C  106  1  0.66341800  0.61324700  0.14855600  1
  C  107  1  0.65842200  0.58877900  0.16845500  1
  C  108  1  0.69575800  0.57459600  0.18107600  1
  C  109  1  0.73767600  0.58408000  0.17215600  1
  C  110  1  0.74314300  0.60824800  0.15333700  1
  C  111  1  0.74161400  0.66228100  0.11349800  1
  C  112  1  0.73519300  0.68513400  0.09325300  1
  C  113  1  0.69347300  0.69118300  0.08138000  1
  C  114  1  0.65673300  0.67537000  0.09284500  1
  C  115  1  0.60135200  0.61367800  0.11196200  1
  C  116  1  0.55843800  0.61870000  0.12119400  1
  C  117  1  0.55739000  0.63993800  0.14298400  1
  C  118  1  0.59971100  0.64904000  0.15005100  1
  C  119  1  0.51991100  0.65260300  0.15541700  1
  C  120  1  0.52489100  0.67511100  0.17625000  1
  C  121  1  0.56661300  0.68454300  0.18568100  1
  C  122  1  0.60419900  0.67189400  0.17183500  1
  C  123  1  0.60776000  0.59278400  0.08850000  1
  C  124  1  0.57136200  0.57823000  0.07503300  1
  C  125  1  0.52934600  0.58307800  0.08698200  1
  C  126  1  0.52242400  0.60353500  0.10958800  1
  C  139  1  0.63176500  0.63207900  0.13096600  1
  C  144  1  0.60091200  0.14756900  0.65471800  1
  C  145  1  0.56348900  0.12997600  0.65720700  1
  C  146  1  0.56535400  0.10719300  0.63685900  1
  C  147  1  0.60336600  0.10976300  0.61981000  1
  C  148  1  0.60621700  0.09236300  0.59342600  1
  C  149  1  0.57116300  0.07322400  0.58513200  1
  C  150  1  0.53611200  0.06928200  0.60517100  1
  C  151  1  0.53232400  0.08665000  0.63061800  1
  C  152  1  0.52707100  0.13836500  0.67399600  1
  C  153  1  0.52802200  0.16554200  0.68875400  1
  C  154  1  0.56496300  0.18432100  0.68750700  1
  C  155  1  0.60148500  0.17524100  0.67011100  1
  C  156  1  0.66751600  0.11690800  0.65282000  1
  C  157  1  0.70842400  0.12850200  0.64579400  1
  C  158  1  0.70421300  0.14948300  0.62392300  1
  C  159  1  0.66060900  0.15200900  0.61498300  1
  C  160  1  0.73820000  0.16617900  0.61163600  1
  C  161  1  0.72861900  0.18543900  0.58844600  1
  C  162  1  0.68604300  0.18749700  0.57661000  1
  C  163  1  0.65152000  0.17164400  0.59088200  1
  C  164  1  0.66579100  0.09385700  0.67456000  1
  C  165  1  0.70462600  0.08342500  0.68846800  1
  C  166  1  0.74507000  0.09535500  0.67930600  1
  C  167  1  0.74729300  0.11806100  0.65838100  1
  C  180  1  0.63285800  0.13219900  0.63445000  1
  C  185  1  0.20666700  0.63224300  0.60887400  1
  C  186  1  0.20614900  0.60990400  0.62961900  1
  C  187  1  0.24055500  0.59066800  0.63649700  1
  C  188  1  0.23612900  0.57199200  0.66090300  1
  C  189  1  0.19883000  0.57323300  0.67933700  1
  C  190  1  0.19976700  0.68363700  0.57438100  1
  C  191  1  0.23922700  0.66745200  0.57564400  1
  C  192  1  0.24288800  0.64166900  0.59246400  1
  C  203  1  0.35331100  0.90136500  0.36224100  1
  C  204  1  0.31030800  0.89441400  0.36985300  1
  C  205  1  0.30964600  0.87338700  0.39186400  1
  C  206  1  0.35217200  0.86614300  0.40039500  1
  C  207  1  0.35713800  0.84455600  0.42337600  1
  C  208  1  0.31977900  0.83149000  0.43710400  1
  C  209  1  0.27797800  0.83874900  0.42605300  1
  C  210  1  0.27249800  0.85992100  0.40390900  1
  C  211  1  0.27395100  0.90813800  0.35700000  1
  C  212  1  0.28080000  0.92922300  0.33494900  1
  C  213  1  0.32322700  0.93615300  0.32483700  1
  C  214  1  0.35971900  0.92288500  0.33939100  1
  C  215  1  0.41502600  0.90272300  0.39937600  1
  C  216  1  0.45784500  0.89441200  0.39269200  1
  C  217  1  0.45800100  0.87141300  0.37276100  1
  C  218  1  0.41535100  0.86428900  0.36443000  1
  C  219  1  0.49481900  0.85647100  0.36205700  1
  C  220  1  0.48893500  0.83406500  0.34122000  1
  C  221  1  0.44708900  0.82704100  0.33013600  1
  C  222  1  0.40995800  0.84144800  0.34275400  1
  C  223  1  0.40923600  0.92656500  0.41990000  1
  C  224  1  0.44613500  0.94096400  0.43284000  1
  C  225  1  0.48834600  0.93244800  0.42359300  1
  C  226  1  0.49458500  0.90896300  0.40403800  1
  C  239  1  0.38396500  0.88363800  0.38161900  1
  C  244  1  0.85574500  0.86122800  0.89641900  1
  C  245  1  0.81691000  0.86025800  0.88012400  1
  C  246  1  0.81735500  0.88176900  0.85851800  1
  C  247  1  0.85705400  0.89706900  0.85921000  1
  C  248  1  0.86055900  0.92321500  0.84149500  1
  C  249  1  0.82490600  0.93270100  0.82345600  1
  C  250  1  0.78581000  0.91606900  0.82391500  1
  C  251  1  0.78181300  0.89053800  0.84107500  1
  C  252  1  0.78222000  0.84124200  0.88697100  1
  C  253  1  0.78557500  0.82341400  0.91208200  1
  C  254  1  0.82209400  0.82523200  0.93118300  1
  C  255  1  0.85843400  0.84296000  0.92225600  1
  C  256  1  0.92109900  0.86333700  0.86431800  1
  C  257  1  0.96269500  0.87113300  0.87414100  1
  C  258  1  0.95981100  0.89388800  0.89423900  1
  C  259  1  0.91615900  0.90135100  0.89960600  1
  C  260  1  0.99525200  0.90908800  0.90655700  1
  C  261  1  0.98694700  0.93259500  0.92565500  1
  C  262  1  0.94394200  0.94049300  0.93366900  1
  C  263  1  0.90836700  0.92531100  0.91975500  1
  C  264  1  0.91813700  0.84056700  0.84232800  1
  C  265  1  0.95655300  0.82690800  0.83082200  1
  C  266  1  0.99731300  0.83470600  0.84317300  1
  C  267  1  0.00081400  0.85701000  0.86440500  1
  C  276  1  0.88733000  0.88159400  0.88065300  1
  C  281  1  0.91162200  0.39500300  0.40405100  1
  C  282  1  0.94805300  0.37639300  0.40419300  1
  C  283  1  0.94308600  0.35511700  0.38254900  1
  C  284  1  0.90378200  0.35955000  0.36724500  1
  C  285  1  0.89783600  0.34369100  0.34013700  1
  C  286  1  0.93112600  0.32423800  0.32946400  1
  C  287  1  0.96757300  0.31839900  0.34780200  1
  C  288  1  0.97439400  0.33419600  0.37395100  1
  C  289  1  0.98585700  0.38271100  0.42052100  1
  C  290  1  0.98727200  0.40875100  0.43726800  1
  C  291  1  0.95134600  0.42840900  0.43827200  1
  C  292  1  0.91346700  0.42146000  0.42139100  1
  C  293  1  0.85000500  0.40546100  0.36866500  1
  C  294  1  0.81215800  0.41026300  0.38547500  1
  C  295  1  0.80742300  0.38804600  0.40621600  1
  C  296  1  0.84283500  0.36862600  0.40417800  1
  C  297  1  0.77026000  0.38179200  0.42321600  1
  C  298  1  0.76833300  0.35491500  0.43854500  1
  C  299  1  0.80319800  0.33436100  0.43765000  1
  C  300  1  0.84052700  0.34133100  0.42015900  1
  C  301  1  0.85430700  0.42165300  0.34160700  1
  C  302  1  0.82116700  0.44209900  0.33271600  1
  C  303  1  0.78696200  0.44858300  0.35278000  1
  C  304  1  0.78151700  0.43230900  0.37879100  1
  C  315  1  0.87694500  0.38203800  0.38411000  1
  C  320  1  0.40889400  0.35989700  0.86665800  1
  C  321  1  0.44754800  0.35644700  0.88287900  1
  C  322  1  0.44932100  0.37717700  0.90530700  1
  C  323  1  0.41150800  0.39453000  0.90478300  1
  C  324  1  0.41145500  0.42125400  0.92179700  1
  C  325  1  0.44830300  0.42919700  0.93944100  1
  C  326  1  0.48500700  0.41016300  0.93945400  1
  C  327  1  0.48575200  0.38413400  0.92274300  1
  C  328  1  0.48082500  0.33684000  0.87457400  1
  C  329  1  0.47629100  0.32112300  0.84813700  1
  C  330  1  0.43989300  0.32549900  0.82935200  1
  C  331  1  0.40490700  0.34377100  0.83953700  1
  C  332  1  0.34519700  0.36344000  0.90050100  1
  C  333  1  0.30410800  0.37560100  0.89513300  1
  C  334  1  0.30781700  0.39909900  0.87599100  1
  C  335  1  0.35102900  0.40235500  0.86644300  1
  C  336  1  0.27366000  0.41752400  0.86679300  1
  C  337  1  0.28245500  0.43927100  0.84578400  1
  C  338  1  0.32422900  0.44197200  0.83280800  1
  C  339  1  0.35917900  0.42436200  0.84429400  1
  C  340  1  0.34731300  0.33805500  0.91946600  1
  C  341  1  0.30862900  0.32581800  0.93208600  1
  C  342  1  0.26798200  0.33835900  0.92428100  1
  C  343  1  0.26540200  0.36346400  0.90635500  1
  C  356  1  0.37936600  0.38073500  0.88349000  1
  C  361  1  0.98432400  0.04225500  0.00233900  1
  C  362  1  0.96237200  0.01845600  0.98789800  1
  C  363  1  0.97618400  0.98871700  0.99272400  1
  C  368  1  0.95827500  0.96343400  0.97894700  1
  C  370  1  0.52933600  0.73047600  0.24528100  1
  C  371  1  0.49253800  0.72669300  0.26395800  1
  C  372  1  0.46953200  0.75094800  0.27658200  1
  C  373  1  0.48316500  0.78050400  0.27048200  1
  C  374  1  0.51977500  0.78418500  0.25147700  1
  C  376  1  0.54217500  0.75989400  0.23904300  1
  C  382  1  0.54720700  0.70564400  0.23106500  1
  C  384  1  0.46656000  0.80592900  0.28472100  1
  C  386  1  0.71772900  0.22783000  0.51214900  1
  C  387  1  0.75467400  0.22452500  0.49342800  1
  C  388  1  0.77733500  0.24913900  0.48116300  1
  C  389  1  0.76287900  0.27833600  0.48762300  1
  C  390  1  0.72504200  0.28168200  0.50538300  1
  C  392  1  0.70305100  0.25708000  0.51745300  1
  C  398  1  0.70296000  0.20343900  0.52873900  1
  C  400  1  0.78350200  0.30413600  0.47771100  1
  C  402  1  0.24490900  0.53490100  0.74183100  1
  C  403  1  0.27985000  0.53952500  0.76189700  1
  C  404  1  0.30165000  0.51581600  0.77649500  1
  C  405  1  0.28890600  0.48593800  0.77091200  1
  C  406  1  0.25388700  0.48146700  0.75074800  1
  C  408  1  0.23259500  0.50517200  0.73649200  1
  C  414  1  0.23053000  0.55837300  0.72388000  1
  C  416  1  0.30388500  0.46099300  0.78681600  1
  C  418  1  0.48425800  0.29039500  0.76454700  1
  C  419  1  0.52182200  0.29425300  0.74654200  1
  C  420  1  0.54404700  0.27002200  0.73312000  1
  C  421  1  0.52856800  0.24073500  0.73773300  1
  C  422  1  0.48974500  0.23695900  0.75435600  1
  C  424  1  0.46816800  0.26113800  0.76753100  1
  C  430  1  0.47100000  0.31333100  0.78361900  1
  C  432  1  0.54963800  0.21512700  0.72777400  1
  C  434  1  0.28254400  0.78764200  0.49829200  1
  C  435  1  0.24652600  0.79150000  0.51770300  1
  C  436  1  0.22240700  0.76725400  0.52938700  1
  C  437  1  0.23418000  0.73782800  0.52151300  1
  C  438  1  0.27085800  0.73392800  0.50271000  1
  C  440  1  0.29436100  0.75817400  0.49124400  1
  C  445  1  0.29959200  0.81229800  0.48325400  1
  C  447  1  0.21345600  0.71229200  0.53220600  1
  C  449  1  0.77412300  0.47725400  0.26878200  1
  C  450  1  0.73752900  0.47298900  0.25001900  1
  C  451  1  0.71611800  0.49687400  0.23539600  1
  C  452  1  0.73102000  0.52643900  0.23969100  1
  C  453  1  0.76839800  0.53051500  0.25782600  1
  C  455  1  0.78927200  0.50668100  0.27211400  1
  C  461  1  0.78704300  0.45457900  0.28820800  1
  C  463  1  0.71358000  0.55171300  0.22576100  1
  C  465  1  0.52321100  0.03696700  0.52192400  1
  C  466  1  0.48690400  0.04141300  0.50295200  1
  C  467  1  0.46545400  0.01763300  0.48820700  1
  C  468  1  0.48003100  0.98799600  0.49258500  1
  C  469  1  0.51699500  0.98373100  0.51106600  1
  C  471  1  0.53791800  0.00747100  0.52547300  1
  C  477  1  0.53665600  0.05974800  0.54102800  1
  C  479  1  0.46301000  0.96287200  0.47817500  1
  C  481  1  0.00441100  0.72684800  0.76401000  1
  C  482  1  0.98177900  0.75105000  0.77705200  1
  C  483  1  0.99602700  0.78059300  0.77156500  1
  C  488  1  0.97971900  0.80590300  0.78611600  1
  C  490  1  0.22889400  0.22609200  0.01717500  1
  C  491  1  0.26635600  0.22229200  0.99909700  1
  C  492  1  0.28755200  0.24642200  0.98476100  1
  C  493  1  0.27135300  0.27570800  0.98859300  1
  C  494  1  0.23301000  0.27933700  0.00581900  1
  C  496  1  0.21241300  0.25526000  0.01986600  1
  C  502  1  0.21607700  0.20335800  0.03659100  1
  C  504  1  0.28919700  0.30118800  0.97549300  1
  C  506  1  0.97299800  0.28952200  0.26384000  1
  C  507  1  0.97628200  0.23611100  0.25306400  1
  C  508  1  0.95556100  0.26057900  0.26634200  1
  C  511  1  0.96060800  0.31247400  0.28317800  1
  C  513  1  0.77470200  0.78679300  0.99329000  1
  C  514  1  0.73903300  0.79112200  0.01282600  1
  C  515  1  0.71711400  0.76720900  0.02701100  1
  C  516  1  0.73050000  0.73746400  0.02151400  1
  C  517  1  0.76648100  0.73329300  0.00209400  1
  C  519  1  0.78787300  0.75718400  0.98823800  1
  C  525  1  0.78892800  0.81024300  0.97527800  1
  C  527  1  0.71430500  0.71226100  0.03638100  1
  C  529  1  0.53541600  0.53535400  0.01286300  1
  C  530  1  0.49930400  0.53887700  0.99345400  1
  C  531  1  0.47558500  0.51441100  0.98181300  1
  C  532  1  0.48793900  0.48509700  0.98968500  1
  C  533  1  0.52489700  0.48152100  0.00828300  1
  C  535  1  0.54797200  0.50597300  0.01971200  1
  C  541  1  0.55139900  0.56005100  0.02842700  1
  C  543  1  0.46680100  0.45937400  0.97986200  1
  C  545  1  0.74332200  0.03706100  0.74760500  1
  C  546  1  0.77883500  0.04079500  0.76743300  1
  C  547  1  0.80284700  0.01646600  0.77899500  1
  C  548  1  0.79146900  0.98712500  0.77053700  1
  C  549  1  0.75536400  0.98336700  0.75119500  1
  C  551  1  0.73193800  0.00770500  0.73985500  1
  C  557  1  0.72562100  0.06194600  0.73345300  1
  C  559  1  0.81196000  0.96153800  0.78126400  1
  C  561  1  0.28996900  0.98019200  0.26301000  1
  C  562  1  0.25321600  0.97693100  0.24414500  1
  C  563  1  0.23012300  0.00159500  0.23239900  1
  C  564  1  0.24390900  0.03078300  0.23959800  1
  C  565  1  0.28132400  0.03407600  0.25779900  1
  C  567  1  0.30375600  0.00941600  0.26935900  1
  C  572  1  0.30606500  0.95537100  0.27819200  1
  C  574  1  0.22346000  0.05660400  0.22955100  1
  C  576  1  0.99786900  0.53712100  0.49516000  1
  C  577  1  0.97567700  0.51228700  0.48300800  1
  C  578  1  0.99028000  0.48321200  0.48994700  1
  C  583  1  0.97091900  0.45724800  0.47933200  1
  C  585  1  0.45008100  0.12721700  0.15842800  1
  C  586  1  0.42299500  0.08308700  0.13134000  1
  C  587  1  0.42723200  0.06696100  0.10513300  1
  C  588  1  0.44576300  0.18200900  0.18803300  1
  C  589  1  0.41107000  0.16136200  0.18977600  1
  C  590  1  0.41303900  0.13396100  0.17537900  1
  C  593  1  0.45113000  0.62156600  0.61969900  1
  C  594  1  0.42457400  0.68044700  0.67366300  1
  C  595  1  0.41708900  0.65852500  0.65260900  1
  C  596  1  0.41356600  0.60809300  0.60820200  1
  C  597  1  0.41836400  0.58626000  0.58657900  1
  C  604  1  0.41110200  0.03776600  0.02137600  1
  C  605  1  0.40371400  0.98442400  0.01120000  1
  C  606  1  0.42518100  0.00816400  0.02526400  1
  C  609  1  0.42449100  0.06046600  0.04066300  1
  C  611  1  0.43193200  0.73066000  0.74549100  1
  C  612  1  0.42338200  0.78432700  0.75277500  1
  C  613  1  0.44537600  0.76009200  0.73991700  1
  C  615  1  0.44894300  0.70605900  0.73036900  1
  C  617  1  0.40152100  0.29281000  0.24611800  1
  C  618  1  0.42292900  0.26828000  0.23262500  1
  C  619  1  0.40605700  0.23928300  0.23679200  1
  C  621  1  0.42659600  0.21334900  0.22723300  1
  C  623  1  0.42503800  0.53411300  0.51414900  1
  C  624  1  0.41812100  0.48020900  0.50829500  1
  C  625  1  0.43967300  0.50503200  0.52024100  1
  C  627  1  0.44045300  0.55896300  0.52952500  1
  C  629  1  0.45414700  0.10490700  0.13766600  1
  C  630  1  0.46061800  0.07342700  0.08442700  1
  C  632  1  0.45299000  0.64343900  0.64079500  1
  C  633  1  0.45994200  0.57835900  0.57561300  1
  C  638  1  0.46707700  0.68672300  0.68406400  1
  C  641  1  0.54608900  0.15562600  0.11884700  1
  C  642  1  0.54107400  0.17139400  0.09160100  1
  C  643  1  0.48527400  0.14670500  0.15552000  1
  C  644  1  0.49133100  0.10972000  0.12015600  1
  C  645  1  0.49424000  0.09375000  0.09284800  1
  C  646  1  0.48286300  0.17455800  0.17052900  1
  C  651  1  0.51899900  0.13298200  0.13532200  1
  C  652  1  0.49327400  0.61350100  0.61129200  1
  C  653  1  0.49634400  0.64989600  0.64819400  1
  C  654  1  0.50326500  0.67210200  0.67035100  1
  C  655  1  0.49761500  0.59133900  0.58883700  1
  C  660  1  0.52613600  0.63094000  0.62920200  1
  C  663  1  0.55355600  0.11991100  0.15535700  1
  C  664  1  0.55604100  0.09299400  0.17197300  1
  C  665  1  0.55727300  0.64725900  0.60900100  1
  C  666  1  0.55699400  0.61007100  0.64493900  1
  C  667  1  0.55331200  0.59112600  0.67022000  1
  C  668  1  0.55400200  0.67356100  0.59148300  1
  C  670  1  0.58935500  0.13906100  0.15640200  1
  C  671  1  0.58437200  0.16071600  0.13513400  1
  C  672  1  0.57422100  0.19141600  0.08180800  1
  C  673  1  0.60928200  0.19797100  0.10114700  1
  C  674  1  0.61529200  0.18223100  0.12740900  1
  C  675  1  0.62687700  0.13305300  0.17313900  1
  C  676  1  0.62888800  0.10656500  0.18912300  1
  C  677  1  0.59374200  0.08623000  0.18915300  1
  C  687  1  0.05312060  0.65219900  0.11413100  1
  C  688  1  0.09587160  0.64597800  0.12297600  1
  C  689  1  0.09647660  0.62253600  0.14235700  1
  C  690  1  0.05395660  0.61324700  0.14855600  1
  C  691  1  0.04896060  0.58877900  0.16845500  1
  C  692  1  0.08629660  0.57459600  0.18107600  1
  C  693  1  0.12821500  0.58408000  0.17215600  1
  C  694  1  0.13368200  0.60824800  0.15333700  1
  C  695  1  0.13215300  0.66228100  0.11349800  1
  C  696  1  0.12573200  0.68513400  0.09325300  1
  C  697  1  0.08401160  0.69118300  0.08138000  1
  C  698  1  0.04727160  0.67537000  0.09284500  1
  C  699  1  0.99189100  0.61367800  0.11196200  1
  C  700  1  0.94897700  0.61870000  0.12119400  1
  C  701  1  0.94792900  0.63993800  0.14298400  1
  C  702  1  0.99025000  0.64904000  0.15005100  1
  C  703  1  0.91045000  0.65260300  0.15541700  1
  C  704  1  0.91543000  0.67511100  0.17625000  1
  C  705  1  0.95715200  0.68454300  0.18568100  1
  C  706  1  0.99473800  0.67189400  0.17183500  1
  C  707  1  0.99829900  0.59278400  0.08850000  1
  C  708  1  0.96190100  0.57823000  0.07503300  1
  C  709  1  0.91988500  0.58307800  0.08698200  1
  C  710  1  0.91296300  0.60353500  0.10958800  1
  C  723  1  0.02230360  0.63207900  0.13096600  1
  C  728  1  0.99145100  0.14756900  0.65471800  1
  C  729  1  0.95402800  0.12997600  0.65720700  1
  C  730  1  0.95589300  0.10719300  0.63685900  1
  C  731  1  0.99390500  0.10976300  0.61981000  1
  C  732  1  0.99675600  0.09236300  0.59342600  1
  C  733  1  0.96170200  0.07322400  0.58513200  1
  C  734  1  0.92665100  0.06928200  0.60517100  1
  C  735  1  0.92286300  0.08665000  0.63061800  1
  C  736  1  0.91761000  0.13836500  0.67399600  1
  C  737  1  0.91856100  0.16554200  0.68875400  1
  C  738  1  0.95550200  0.18432100  0.68750700  1
  C  739  1  0.99202400  0.17524100  0.67011100  1
  C  740  1  0.05805460  0.11690800  0.65282000  1
  C  741  1  0.09896260  0.12850200  0.64579400  1
  C  742  1  0.09475160  0.14948300  0.62392300  1
  C  743  1  0.05114760  0.15200900  0.61498300  1
  C  744  1  0.12873900  0.16617900  0.61163600  1
  C  745  1  0.11915800  0.18543900  0.58844600  1
  C  746  1  0.07658160  0.18749700  0.57661000  1
  C  747  1  0.04205860  0.17164400  0.59088200  1
  C  748  1  0.05632960  0.09385700  0.67456000  1
  C  749  1  0.09516460  0.08342500  0.68846800  1
  C  750  1  0.13560900  0.09535500  0.67930600  1
  C  751  1  0.13783200  0.11806100  0.65838100  1
  C  764  1  0.02339660  0.13219900  0.63445000  1
  C  769  1  0.59720600  0.63224300  0.60887400  1
  C  770  1  0.59668800  0.60990400  0.62961900  1
  C  771  1  0.63109400  0.59066800  0.63649700  1
  C  772  1  0.62666800  0.57199200  0.66090300  1
  C  773  1  0.58936900  0.57323300  0.67933700  1
  C  774  1  0.59030600  0.68363700  0.57438100  1
  C  775  1  0.62976600  0.66745200  0.57564400  1
  C  776  1  0.63342700  0.64166900  0.59246400  1
  C  787  1  0.74385000  0.90136500  0.36224100  1
  C  788  1  0.70084700  0.89441400  0.36985300  1
  C  789  1  0.70018500  0.87338700  0.39186400  1
  C  790  1  0.74271100  0.86614300  0.40039500  1
  C  791  1  0.74767700  0.84455600  0.42337600  1
  C  792  1  0.71031800  0.83149000  0.43710400  1
  C  793  1  0.66851700  0.83874900  0.42605300  1
  C  794  1  0.66303700  0.85992100  0.40390900  1
  C  795  1  0.66449000  0.90813800  0.35700000  1
  C  796  1  0.67133900  0.92922300  0.33494900  1
  C  797  1  0.71376600  0.93615300  0.32483700  1
  C  798  1  0.75025800  0.92288500  0.33939100  1
  C  799  1  0.80556500  0.90272300  0.39937600  1
  C  800  1  0.84838400  0.89441200  0.39269200  1
  C  801  1  0.84854000  0.87141300  0.37276100  1
  C  802  1  0.80589000  0.86428900  0.36443000  1
  C  803  1  0.88535800  0.85647100  0.36205700  1
  C  804  1  0.87947400  0.83406500  0.34122000  1
  C  805  1  0.83762800  0.82704100  0.33013600  1
  C  806  1  0.80049700  0.84144800  0.34275400  1
  C  807  1  0.79977500  0.92656500  0.41990000  1
  C  808  1  0.83667400  0.94096400  0.43284000  1
  C  809  1  0.87888500  0.93244800  0.42359300  1
  C  810  1  0.88512400  0.90896300  0.40403800  1
  C  823  1  0.77450400  0.88363800  0.38161900  1
  C  828  1  0.24628400  0.86122800  0.89641900  1
  C  829  1  0.20744900  0.86025800  0.88012400  1
  C  830  1  0.20789400  0.88176900  0.85851800  1
  C  831  1  0.24759300  0.89706900  0.85921000  1
  C  832  1  0.25109800  0.92321500  0.84149500  1
  C  833  1  0.21544500  0.93270100  0.82345600  1
  C  834  1  0.17634900  0.91606900  0.82391500  1
  C  835  1  0.17235200  0.89053800  0.84107500  1
  C  836  1  0.17275900  0.84124200  0.88697100  1
  C  837  1  0.17611400  0.82341400  0.91208200  1
  C  838  1  0.21263300  0.82523200  0.93118300  1
  C  839  1  0.24897300  0.84296000  0.92225600  1
  C  840  1  0.31163800  0.86333700  0.86431800  1
  C  841  1  0.35323400  0.87113300  0.87414100  1
  C  842  1  0.35035000  0.89388800  0.89423900  1
  C  843  1  0.30669800  0.90135100  0.89960600  1
  C  844  1  0.38579100  0.90908800  0.90655700  1
  C  845  1  0.37748600  0.93259500  0.92565500  1
  C  846  1  0.33448100  0.94049300  0.93366900  1
  C  847  1  0.29890600  0.92531100  0.91975500  1
  C  848  1  0.30867600  0.84056700  0.84232800  1
  C  849  1  0.34709200  0.82690800  0.83082200  1
  C  850  1  0.38785200  0.83470600  0.84317300  1
  C  851  1  0.39135300  0.85701000  0.86440500  1
  C  860  1  0.27786900  0.88159400  0.88065300  1
  C  865  1  0.30216100  0.39500300  0.40405100  1
  C  866  1  0.33859200  0.37639300  0.40419300  1
  C  867  1  0.33362500  0.35511700  0.38254900  1
  C  868  1  0.29432100  0.35955000  0.36724500  1
  C  869  1  0.28837500  0.34369100  0.34013700  1
  C  870  1  0.32166500  0.32423800  0.32946400  1
  C  871  1  0.35811200  0.31839900  0.34780200  1
  C  872  1  0.36493300  0.33419600  0.37395100  1
  C  873  1  0.37639600  0.38271100  0.42052100  1
  C  874  1  0.37781100  0.40875100  0.43726800  1
  C  875  1  0.34188500  0.42840900  0.43827200  1
  C  876  1  0.30400600  0.42146000  0.42139100  1
  C  877  1  0.24054400  0.40546100  0.36866500  1
  C  878  1  0.20269700  0.41026300  0.38547500  1
  C  879  1  0.19796200  0.38804600  0.40621600  1
  C  880  1  0.23337400  0.36862600  0.40417800  1
  C  881  1  0.16079900  0.38179200  0.42321600  1
  C  882  1  0.15887200  0.35491500  0.43854500  1
  C  883  1  0.19373700  0.33436100  0.43765000  1
  C  884  1  0.23106600  0.34133100  0.42015900  1
  C  885  1  0.24484600  0.42165300  0.34160700  1
  C  886  1  0.21170600  0.44209900  0.33271600  1
  C  887  1  0.17750100  0.44858300  0.35278000  1
  C  888  1  0.17205600  0.43230900  0.37879100  1
  C  899  1  0.26748400  0.38203800  0.38411000  1
  C  904  1  0.79943300  0.35989700  0.86665800  1
  C  905  1  0.83808700  0.35644700  0.88287900  1
  C  906  1  0.83986000  0.37717700  0.90530700  1
  C  907  1  0.80204700  0.39453000  0.90478300  1
  C  908  1  0.80199400  0.42125400  0.92179700  1
  C  909  1  0.83884200  0.42919700  0.93944100  1
  C  910  1  0.87554600  0.41016300  0.93945400  1
  C  911  1  0.87629100  0.38413400  0.92274300  1
  C  912  1  0.87136400  0.33684000  0.87457400  1
  C  913  1  0.86683000  0.32112300  0.84813700  1
  C  914  1  0.83043200  0.32549900  0.82935200  1
  C  915  1  0.79544600  0.34377100  0.83953700  1
  C  916  1  0.73573600  0.36344000  0.90050100  1
  C  917  1  0.69464700  0.37560100  0.89513300  1
  C  918  1  0.69835600  0.39909900  0.87599100  1
  C  919  1  0.74156800  0.40235500  0.86644300  1
  C  920  1  0.66419900  0.41752400  0.86679300  1
  C  921  1  0.67299400  0.43927100  0.84578400  1
  C  922  1  0.71476800  0.44197200  0.83280800  1
  C  923  1  0.74971800  0.42436200  0.84429400  1
  C  924  1  0.73785200  0.33805500  0.91946600  1
  C  925  1  0.69916800  0.32581800  0.93208600  1
  C  926  1  0.65852100  0.33835900  0.92428100  1
  C  927  1  0.65594100  0.36346400  0.90635500  1
  C  940  1  0.76990500  0.38073500  0.88349000  1
  C  945  1  0.37486300  0.04225500  0.00233900  1
  C  946  1  0.35291100  0.01845600  0.98789800  1
  C  947  1  0.36672300  0.98871700  0.99272400  1
  C  952  1  0.34881400  0.96343400  0.97894700  1
  C  954  1  0.91987500  0.73047600  0.24528100  1
  C  955  1  0.88307700  0.72669300  0.26395800  1
  C  956  1  0.86007100  0.75094800  0.27658200  1
  C  957  1  0.87370400  0.78050400  0.27048200  1
  C  958  1  0.91031400  0.78418500  0.25147700  1
  C  960  1  0.93271400  0.75989400  0.23904300  1
  C  966  1  0.93774600  0.70564400  0.23106500  1
  C  968  1  0.85709900  0.80592900  0.28472100  1
  C  970  1  0.10826800  0.22783000  0.51214900  1
  C  971  1  0.14521300  0.22452500  0.49342800  1
  C  972  1  0.16787400  0.24913900  0.48116300  1
  C  973  1  0.15341800  0.27833600  0.48762300  1
  C  974  1  0.11558100  0.28168200  0.50538300  1
  C  976  1  0.09358960  0.25708000  0.51745300  1
  C  982  1  0.09349860  0.20343900  0.52873900  1
  C  984  1  0.17404100  0.30413600  0.47771100  1
  C  986  1  0.63544800  0.53490100  0.74183100  1
  C  987  1  0.67038900  0.53952500  0.76189700  1
  C  988  1  0.69218900  0.51581600  0.77649500  1
  C  989  1  0.67944500  0.48593800  0.77091200  1
  C  990  1  0.64442600  0.48146700  0.75074800  1
  C  992  1  0.62313400  0.50517200  0.73649200  1
  C  998  1  0.62106900  0.55837300  0.72388000  1
  C  1000  1  0.69442400  0.46099300  0.78681600  1
  C  1002  1  0.87479700  0.29039500  0.76454700  1
  C  1003  1  0.91236100  0.29425300  0.74654200  1
  C  1004  1  0.93458600  0.27002200  0.73312000  1
  C  1005  1  0.91910700  0.24073500  0.73773300  1
  C  1006  1  0.88028400  0.23695900  0.75435600  1
  C  1008  1  0.85870700  0.26113800  0.76753100  1
  C  1014  1  0.86153900  0.31333100  0.78361900  1
  C  1016  1  0.94017700  0.21512700  0.72777400  1
  C  1018  1  0.67308300  0.78764200  0.49829200  1
  C  1019  1  0.63706500  0.79150000  0.51770300  1
  C  1020  1  0.61294600  0.76725400  0.52938700  1
  C  1021  1  0.62471900  0.73782800  0.52151300  1
  C  1022  1  0.66139700  0.73392800  0.50271000  1
  C  1024  1  0.68490000  0.75817400  0.49124400  1
  C  1029  1  0.69013100  0.81229800  0.48325400  1
  C  1031  1  0.60399500  0.71229200  0.53220600  1
  C  1033  1  0.16466200  0.47725400  0.26878200  1
  C  1034  1  0.12806800  0.47298900  0.25001900  1
  C  1035  1  0.10665700  0.49687400  0.23539600  1
  C  1036  1  0.12155900  0.52643900  0.23969100  1
  C  1037  1  0.15893700  0.53051500  0.25782600  1
  C  1039  1  0.17981100  0.50668100  0.27211400  1
  C  1045  1  0.17758200  0.45457900  0.28820800  1
  C  1047  1  0.10411900  0.55171300  0.22576100  1
  C  1049  1  0.91375000  0.03696700  0.52192400  1
  C  1050  1  0.87744300  0.04141300  0.50295200  1
  C  1051  1  0.85599300  0.01763300  0.48820700  1
  C  1052  1  0.87057000  0.98799600  0.49258500  1
  C  1053  1  0.90753400  0.98373100  0.51106600  1
  C  1055  1  0.92845700  0.00747100  0.52547300  1
  C  1061  1  0.92719500  0.05974800  0.54102800  1
  C  1063  1  0.85354900  0.96287200  0.47817500  1
  C  1065  1  0.39495000  0.72684800  0.76401000  1
  C  1066  1  0.37231800  0.75105000  0.77705200  1
  C  1067  1  0.38656600  0.78059300  0.77156500  1
  C  1072  1  0.37025800  0.80590300  0.78611600  1
  C  1074  1  0.61943300  0.22609200  0.01717500  1
  C  1075  1  0.65689500  0.22229200  0.99909700  1
  C  1076  1  0.67809100  0.24642200  0.98476100  1
  C  1077  1  0.66189200  0.27570800  0.98859300  1
  C  1078  1  0.62354900  0.27933700  0.00581900  1
  C  1080  1  0.60295200  0.25526000  0.01986600  1
  C  1086  1  0.60661600  0.20335800  0.03659100  1
  C  1088  1  0.67973600  0.30118800  0.97549300  1
  C  1090  1  0.36353700  0.28952200  0.26384000  1
  C  1091  1  0.36682100  0.23611100  0.25306400  1
  C  1092  1  0.34610000  0.26057900  0.26634200  1
  C  1095  1  0.35114700  0.31247400  0.28317800  1
  C  1097  1  0.16524100  0.78679300  0.99329000  1
  C  1098  1  0.12957200  0.79112200  0.01282600  1
  C  1099  1  0.10765300  0.76720900  0.02701100  1
  C  1100  1  0.12103900  0.73746400  0.02151400  1
  C  1101  1  0.15702000  0.73329300  0.00209400  1
  C  1103  1  0.17841200  0.75718400  0.98823800  1
  C  1109  1  0.17946700  0.81024300  0.97527800  1
  C  1111  1  0.10484400  0.71226100  0.03638100  1
  C  1113  1  0.92595500  0.53535400  0.01286300  1
  C  1114  1  0.88984300  0.53887700  0.99345400  1
  C  1115  1  0.86612400  0.51441100  0.98181300  1
  C  1116  1  0.87847800  0.48509700  0.98968500  1
  C  1117  1  0.91543600  0.48152100  0.00828300  1
  C  1119  1  0.93851100  0.50597300  0.01971200  1
  C  1125  1  0.94193800  0.56005100  0.02842700  1
  C  1127  1  0.85734000  0.45937400  0.97986200  1
  C  1129  1  0.13386100  0.03706100  0.74760500  1
  C  1130  1  0.16937400  0.04079500  0.76743300  1
  C  1131  1  0.19338600  0.01646600  0.77899500  1
  C  1132  1  0.18200800  0.98712500  0.77053700  1
  C  1133  1  0.14590300  0.98336700  0.75119500  1
  C  1135  1  0.12247700  0.00770500  0.73985500  1
  C  1141  1  0.11616000  0.06194600  0.73345300  1
  C  1143  1  0.20249900  0.96153800  0.78126400  1
  C  1145  1  0.68050800  0.98019200  0.26301000  1
  C  1146  1  0.64375500  0.97693100  0.24414500  1
  C  1147  1  0.62066200  0.00159500  0.23239900  1
  C  1148  1  0.63444800  0.03078300  0.23959800  1
  C  1149  1  0.67186300  0.03407600  0.25779900  1
  C  1151  1  0.69429500  0.00941600  0.26935900  1
  C  1156  1  0.69660400  0.95537100  0.27819200  1
  C  1158  1  0.61399900  0.05660400  0.22955100  1
  C  1160  1  0.38840800  0.53712100  0.49516000  1
  C  1161  1  0.36621600  0.51228700  0.48300800  1
  C  1162  1  0.38081900  0.48321200  0.48994700  1
  C  1167  1  0.36145800  0.45724800  0.47933200  1
  N  8  1  0.04742900  0.20881000  0.19996800  1
  N  47  1  0.06644200  0.05807900  0.05895000  1
  N  50  1  0.06858600  0.55679900  0.55520300  1
  N  51  1  0.07156900  0.27192300  0.21649500  1
  N  55  1  0.07687500  0.70833000  0.70458500  1
  N  101  1  0.21101300  0.06009000  0.20234600  1
  N  102  1  0.18543800  0.20647400  0.05616100  1
  N  140  1  0.56508000  0.70717800  0.20504200  1
  N  141  1  0.69395200  0.71339100  0.06155300  1
  N  142  1  0.69692600  0.55110200  0.19935400  1
  N  143  1  0.57164100  0.55757600  0.05357400  1
  N  181  1  0.68353400  0.20682800  0.55406200  1
  N  182  1  0.55927800  0.21104100  0.70012300  1
  N  183  1  0.56777200  0.05695700  0.56029500  1
  N  184  1  0.70790400  0.06059800  0.70740200  1
  N  201  1  0.20142400  0.55549800  0.70321500  1
  N  202  1  0.20335400  0.70954400  0.55996400  1
  N  240  1  0.44775300  0.80478600  0.31043400  1
  N  241  1  0.32365000  0.95760500  0.30424300  1
  N  242  1  0.31883900  0.81003000  0.45774100  1
  N  243  1  0.44662300  0.96396200  0.45171100  1
  N  277  1  0.94320700  0.96395800  0.95207500  1
  N  278  1  0.81896600  0.80769900  0.95518900  1
  N  279  1  0.82135200  0.95863200  0.80911300  1
  N  280  1  0.95886100  0.80473500  0.81108000  1
  N  316  1  0.79539400  0.30798600  0.45043500  1
  N  317  1  0.95833000  0.45427500  0.45211100  1
  N  318  1  0.93179300  0.30894000  0.30393600  1
  N  319  1  0.81855000  0.45736300  0.30719800  1
  N  357  1  0.32535900  0.46278400  0.81153300  1
  N  358  1  0.44182000  0.30975000  0.80412500  1
  N  359  1  0.45496100  0.45558900  0.95254500  1
  N  360  1  0.30545900  0.30143700  0.94899300  1
  N  365  1  0.92590300  0.02389500  0.96949700  1
  N  379  1  0.43291900  0.74580500  0.29499000  1
  N  395  1  0.81524300  0.24514600  0.46373000  1
  N  411  1  0.33646500  0.52185900  0.79618800  1
  N  427  1  0.58264500  0.27428000  0.71651500  1
  N  443  1  0.18591000  0.77197100  0.54799000  1
  N  458  1  0.67914100  0.49169000  0.21738800  1
  N  474  1  0.42886000  0.02304500  0.46989700  1
  N  485  1  0.94485700  0.74586900  0.79517200  1
  N  499  1  0.32562200  0.24186900  0.96765400  1
  N  522  1  0.68138600  0.77280800  0.04606100  1
  N  538  1  0.43872500  0.51879300  0.96346300  1
  N  554  1  0.83874100  0.02106100  0.79816000  1
  N  570  1  0.19260500  0.99755000  0.21458500  1
  N  580  1  0.93832200  0.51607200  0.46498200  1
  N  592  1  0.43796800  0.20881000  0.19996800  1
  N  631  1  0.45698100  0.05807900  0.05895000  1
  N  634  1  0.45912500  0.55679900  0.55520300  1
  N  635  1  0.46210800  0.27192300  0.21649500  1
  N  639  1  0.46741400  0.70833000  0.70458500  1
  N  685  1  0.60155200  0.06009000  0.20234600  1
  N  686  1  0.57597700  0.20647400  0.05616100  1
  N  724  1  0.95561900  0.70717800  0.20504200  1
  N  725  1  0.08449060  0.71339100  0.06155300  1
  N  726  1  0.08746460  0.55110200  0.19935400  1
  N  727  1  0.96218000  0.55757600  0.05357400  1
  N  765  1  0.07407260  0.20682800  0.55406200  1
  N  766  1  0.94981700  0.21104100  0.70012300  1
  N  767  1  0.95831100  0.05695700  0.56029500  1
  N  768  1  0.09844260  0.06059800  0.70740200  1
  N  785  1  0.59196300  0.55549800  0.70321500  1
  N  786  1  0.59389300  0.70954400  0.55996400  1
  N  824  1  0.83829200  0.80478600  0.31043400  1
  N  825  1  0.71418900  0.95760500  0.30424300  1
  N  826  1  0.70937800  0.81003000  0.45774100  1
  N  827  1  0.83716200  0.96396200  0.45171100  1
  N  861  1  0.33374600  0.96395800  0.95207500  1
  N  862  1  0.20950500  0.80769900  0.95518900  1
  N  863  1  0.21189100  0.95863200  0.80911300  1
  N  864  1  0.34940000  0.80473500  0.81108000  1
  N  900  1  0.18593300  0.30798600  0.45043500  1
  N  901  1  0.34886900  0.45427500  0.45211100  1
  N  902  1  0.32233200  0.30894000  0.30393600  1
  N  903  1  0.20908900  0.45736300  0.30719800  1
  N  941  1  0.71589800  0.46278400  0.81153300  1
  N  942  1  0.83235900  0.30975000  0.80412500  1
  N  943  1  0.84550000  0.45558900  0.95254500  1
  N  944  1  0.69599800  0.30143700  0.94899300  1
  N  949  1  0.31644200  0.02389500  0.96949700  1
  N  963  1  0.82345800  0.74580500  0.29499000  1
  N  979  1  0.20578200  0.24514600  0.46373000  1
  N  995  1  0.72700400  0.52185900  0.79618800  1
  N  1011  1  0.97318400  0.27428000  0.71651500  1
  N  1027  1  0.57644900  0.77197100  0.54799000  1
  N  1042  1  0.06967960  0.49169000  0.21738800  1
  N  1058  1  0.81939900  0.02304500  0.46989700  1
  N  1069  1  0.33539600  0.74586900  0.79517200  1
  N  1083  1  0.71616100  0.24186900  0.96765400  1
  N  1106  1  0.07192460  0.77280800  0.04606100  1
  N  1122  1  0.82926400  0.51879300  0.96346300  1
  N  1138  1  0.22928000  0.02106100  0.79816000  1
  N  1154  1  0.58314400  0.99755000  0.21458500  1
  N  1164  1  0.32886100  0.51607200  0.46498200  1
  O  52  1  0.06605900  0.28850600  0.19438900  1
  O  77  1  0.15667700  0.78648300  0.53495900  1
  O  78  1  0.10123500  0.28266100  0.23241200  1
  O  85  1  0.16308700  0.98408800  0.22842700  1
  O  366  1  0.89542700  0.03600700  0.98360500  1
  O  367  1  0.93584200  0.04003400  0.94777700  1
  O  380  1  0.40303000  0.73258000  0.28129800  1
  O  381  1  0.44285500  0.73098600  0.31764500  1
  O  396  1  0.84487200  0.23236100  0.47809300  1
  O  397  1  0.80725700  0.23029900  0.44075600  1
  O  412  1  0.36750400  0.53460800  0.78325000  1
  O  413  1  0.32441000  0.53755000  0.81774600  1
  O  428  1  0.61217000  0.28580400  0.73199400  1
  O  429  1  0.57586300  0.29048100  0.69429100  1
  O  444  1  0.19640600  0.78547000  0.57132600  1
  O  459  1  0.64852200  0.48027700  0.23192800  1
  O  460  1  0.68814600  0.47507600  0.19583600  1
  O  475  1  0.39812800  0.03462400  0.48419100  1
  O  476  1  0.43842900  0.03961000  0.44841900  1
  O  486  1  0.91481800  0.73323700  0.78107500  1
  O  487  1  0.95421700  0.73050000  0.81757100  1
  O  500  1  0.35594400  0.23110700  0.98296100  1
  O  501  1  0.31838000  0.22497800  0.94601200  1
  O  523  1  0.65064700  0.78534600  0.03260200  1
  O  524  1  0.69228500  0.78852100  0.06788600  1
  O  539  1  0.40937900  0.53300800  0.97670500  1
  O  540  1  0.44861200  0.53245000  0.94009400  1
  O  555  1  0.86816800  0.03592400  0.78574600  1
  O  556  1  0.82741500  0.03414800  0.82155600  1
  O  571  1  0.20131400  0.98333600  0.19133000  1
  O  581  1  0.90825000  0.52901400  0.47876800  1
  O  582  1  0.94699800  0.53065900  0.44195000  1
  O  636  1  0.45659800  0.28850600  0.19438900  1
  O  661  1  0.54721600  0.78648300  0.53495900  1
  O  662  1  0.49177400  0.28266100  0.23241200  1
  O  669  1  0.55362600  0.98408800  0.22842700  1
  O  950  1  0.28596600  0.03600700  0.98360500  1
  O  951  1  0.32638100  0.04003400  0.94777700  1
  O  964  1  0.79356900  0.73258000  0.28129800  1
  O  965  1  0.83339400  0.73098600  0.31764500  1
  O  980  1  0.23541100  0.23236100  0.47809300  1
  O  981  1  0.19779600  0.23029900  0.44075600  1
  O  996  1  0.75804300  0.53460800  0.78325000  1
  O  997  1  0.71494900  0.53755000  0.81774600  1
  O  1012  1  0.00270855  0.28580400  0.73199400  1
  O  1013  1  0.96640200  0.29048100  0.69429100  1
  O  1028  1  0.58694500  0.78547000  0.57132600  1
  O  1043  1  0.03906060  0.48027700  0.23192800  1
  O  1044  1  0.07868460  0.47507600  0.19583600  1
  O  1059  1  0.78866700  0.03462400  0.48419100  1
  O  1060  1  0.82896800  0.03961000  0.44841900  1
  O  1070  1  0.30535700  0.73323700  0.78107500  1
  O  1071  1  0.34475600  0.73050000  0.81757100  1
  O  1084  1  0.74648300  0.23110700  0.98296100  1
  O  1085  1  0.70891900  0.22497800  0.94601200  1
  O  1107  1  0.04118560  0.78534600  0.03260200  1
  O  1108  1  0.08282360  0.78852100  0.06788600  1
  O  1123  1  0.79991800  0.53300800  0.97670500  1
  O  1124  1  0.83915100  0.53245000  0.94009400  1
  O  1139  1  0.25870700  0.03592400  0.78574600  1
  O  1140  1  0.21795400  0.03414800  0.82155600  1
  O  1155  1  0.59185300  0.98333600  0.19133000  1
  O  1165  1  0.29878900  0.52901400  0.47876800  1
  O  1166  1  0.33753700  0.53065900  0.44195000  1
