# generated using pymatgen
data_SiH24C36(NO)4
_symmetry_space_group_name_H-M   'P 1'
_cell_length_a   59.63831982
_cell_length_b   59.63831982
_cell_length_c   59.63831982
_cell_angle_alpha   109.47122063
_cell_angle_beta   109.47122063
_cell_angle_gamma   109.47122063
_symmetry_Int_Tables_number   1
_chemical_formula_structural   SiH24C36(NO)4
_chemical_formula_sum   'Si24 H576 C864 N96 O96'
_cell_volume   163288.01444510
_cell_formula_units_Z   24
loop_
 _symmetry_equiv_pos_site_id
 _symmetry_equiv_pos_as_xyz
  1  'x, y, z'
loop_
 _atom_site_type_symbol
 _atom_site_label
 _atom_site_symmetry_multiplicity
 _atom_site_fract_x
 _atom_site_fract_y
 _atom_site_fract_z
 _atom_site_occupancy
  C  1  1  0.41100100  0.92216650  0.74459250  1
  C  2  1  0.38647400  0.90820100  0.74424700  1
  C  3  1  0.36841100  0.88013200  0.72545600  1
  C  4  1  0.37398250  0.86526750  0.70600000  1
  C  5  1  0.39921600  0.87918250  0.70728750  1
  C  6  1  0.41731850  0.90735900  0.72607450  1
  C  8  1  0.35132150  0.81992400  0.70598050  1
  C  9  1  0.37635750  0.82444850  0.72534800  1
  C  10  1  0.37713350  0.81516600  0.74414050  1
  C  11  1  0.35300300  0.80163600  0.74460800  1
  C  12  1  0.32816900  0.79801700  0.72619000  1
  C  13  1  0.32742600  0.80737050  0.70737150  1
  C  14  1  0.32104150  0.82561750  0.66367200  1
  C  15  1  0.36175800  0.81726650  0.66354750  1
  C  16  1  0.36680100  0.79560400  0.66315000  1
  C  17  1  0.37427900  0.78309800  0.64471600  1
  C  18  1  0.37611150  0.79110400  0.62531050  1
  C  19  1  0.37045950  0.81224350  0.62508700  1
  C  20  1  0.36350800  0.82517450  0.64396750  1
  C  21  1  0.31569150  0.84694750  0.66334800  1
  C  22  1  0.28980750  0.84111900  0.64496150  1
  C  23  1  0.26851000  0.81374000  0.62551400  1
  C  24  1  0.27383550  0.79231100  0.62524550  1
  C  25  1  0.29963700  0.79816200  0.64408600  1
  C  42  1  0.58778550  0.33296250  0.51077200  1
  C  43  1  0.61237500  0.35709950  0.52136650  1
  C  44  1  0.63039450  0.35633600  0.51130850  1
  C  45  1  0.62473250  0.33130500  0.49079750  1
  C  46  1  0.59944800  0.30740650  0.47944850  1
  C  47  1  0.58137800  0.30813550  0.48955650  1
  C  49  1  0.64739250  0.35397600  0.46813150  1
  C  50  1  0.62237150  0.34840350  0.44768100  1
  C  51  1  0.62164800  0.36648650  0.43770250  1
  C  52  1  0.64582900  0.39103800  0.44831700  1
  C  53  1  0.67065750  0.39735300  0.46944450  1
  C  54  1  0.67133550  0.37922700  0.47948550  1
  C  55  1  0.67761400  0.34176000  0.50391400  1
  C  56  1  0.63678250  0.30102950  0.45485400  1
  C  57  1  0.63174850  0.29565950  0.42816800  1
  C  58  1  0.62424350  0.26976450  0.40812500  1
  C  59  1  0.62238850  0.24847700  0.41422350  1
  C  60  1  0.62800850  0.25383100  0.44099050  1
  C  61  1  0.63497500  0.27964000  0.46092700  1
  C  62  1  0.68304950  0.34680950  0.53061800  1
  C  63  1  0.70895650  0.35427250  0.55060100  1
  C  64  1  0.73019600  0.35610400  0.54443000  1
  C  65  1  0.72477300  0.35045500  0.51764100  1
  C  66  1  0.69894700  0.34351100  0.49775900  1
  C  83  1  0.82179750  0.03660500  0.44815750  1
  C  84  1  0.83534100  0.05061700  0.43757700  1
  C  85  1  0.84457350  0.07868200  0.44761250  1
  C  86  1  0.83997350  0.09349250  0.46807200  1
  C  87  1  0.82740500  0.07953050  0.47939250  1
  C  88  1  0.81808350  0.05136300  0.46930550  1
  C  90  1  0.88527750  0.13886150  0.49077600  1
  C  91  1  0.90014350  0.13430100  0.51124250  1
  C  92  1  0.92821050  0.14357300  0.52125050  1
  C  93  1  0.94216700  0.15713300  0.51064400  1
  C  94  1  0.92735950  0.16081050  0.48949100  1
  C  95  1  0.89918900  0.15144500  0.47943000  1
  C  96  1  0.83726500  0.13321650  0.45491450  1
  C  97  1  0.84553800  0.14144600  0.50396300  1
  C  98  1  0.86682050  0.16310050  0.53066600  1
  C  99  1  0.86091750  0.17558200  0.55068550  1
  C  100  1  0.83351300  0.16755450  0.54455150  1
  C  101  1  0.81213150  0.14640750  0.51777000  1
  C  102  1  0.81805700  0.13350950  0.49785050  1
  C  103  1  0.81563900  0.11192750  0.42820150  1
  C  104  1  0.80314100  0.11782200  0.40818200  1
  C  105  1  0.81112050  0.14522050  0.41432100  1
  C  106  1  0.83222700  0.16660600  0.44111700  1
  C  107  1  0.84514850  0.16069200  0.46103650  1
  C  124  1  0.17706000  0.62590050  0.21436050  1
  C  125  1  0.16354650  0.60173250  0.21477500  1
  C  126  1  0.15429200  0.60245850  0.23358250  1
  C  127  1  0.15883300  0.62747550  0.25300550  1
  C  128  1  0.17137900  0.65140500  0.25166100  1
  C  129  1  0.18072500  0.65072100  0.23284400  1
  C  131  1  0.11346100  0.60479450  0.25292950  1
  C  132  1  0.09864750  0.61044100  0.23351950  1
  C  133  1  0.07058250  0.59241100  0.21469150  1
  C  134  1  0.05657150  0.56782000  0.21422650  1
  C  135  1  0.07133450  0.56143450  0.23269900  1
  C  136  1  0.09950500  0.57950900  0.25153300  1
  C  137  1  0.16140700  0.61686500  0.29532900  1
  C  138  1  0.15318400  0.65768200  0.29536400  1
  C  139  1  0.13189800  0.66311050  0.29569550  1
  C  140  1  0.13779600  0.68902450  0.31409250  1
  C  141  1  0.16519750  0.71028250  0.33351200  1
  C  142  1  0.18658050  0.70486550  0.33379800  1
  C  143  1  0.18066200  0.67903250  0.31495750  1
  C  144  1  0.18305400  0.61180500  0.29570500  1
  C  145  1  0.19554200  0.60429000  0.31411100  1
  C  146  1  0.18749200  0.60238600  0.33347200  1
  C  147  1  0.16634700  0.60802550  0.33369750  1
  C  148  1  0.15346100  0.61504750  0.31486950  1
  C  165  1  0.64587400  0.21424600  0.15695000  1
  C  166  1  0.62168700  0.21461250  0.14339450  1
  C  167  1  0.62238700  0.23340350  0.13412250  1
  C  168  1  0.64740150  0.25287000  0.13869950  1
  C  169  1  0.67135050  0.25156500  0.15126950  1
  C  170  1  0.67069050  0.23276700  0.16063950  1
  C  172  1  0.62470850  0.25284800  0.09335550  1
  C  173  1  0.63037450  0.23347450  0.07851600  1
  C  174  1  0.61234800  0.21467100  0.05044400  1
  C  175  1  0.58774200  0.21419300  0.03644800  1
  C  176  1  0.58133450  0.23261850  0.05124600  1
  C  177  1  0.59940900  0.25143700  0.07941800  1
  C  178  1  0.63674650  0.29517400  0.14133850  1
  C  179  1  0.67758100  0.29529650  0.13310750  1
  C  180  1  0.68300900  0.29568150  0.11183350  1
  C  181  1  0.70891650  0.31411150  0.11774800  1
  C  182  1  0.73015350  0.33354150  0.14515500  1
  C  183  1  0.72473400  0.33377950  0.16652750  1
  C  184  1  0.69891500  0.31488850  0.16059150  1
  C  185  1  0.63170700  0.29550100  0.16298700  1
  C  186  1  0.62423450  0.31391150  0.17555000  1
  C  187  1  0.62235450  0.33333100  0.16758350  1
  C  188  1  0.62795050  0.33358500  0.14641950  1
  C  189  1  0.63491750  0.31474400  0.13344650  1
  C  206  1  0.05659050  0.44821650  0.80175200  1
  C  207  1  0.07057550  0.43761150  0.81528700  1
  C  208  1  0.09864000  0.44763200  0.82452800  1
  C  209  1  0.11347200  0.46810400  0.81995500  1
  C  210  1  0.09953500  0.47945100  0.80739900  1
  C  211  1  0.07136500  0.46936650  0.79805350  1
  C  213  1  0.15882800  0.49077350  0.86526250  1
  C  214  1  0.15428400  0.51124850  0.88014050  1
  C  215  1  0.16353000  0.52122150  0.90820050  1
  C  216  1  0.17702600  0.51055650  0.92212750  1
  C  217  1  0.18069200  0.48940150  0.90730850  1
  C  218  1  0.17135800  0.47937800  0.87914700  1
  C  219  1  0.15319100  0.45492550  0.81725750  1
  C  220  1  0.16143600  0.50397600  0.82553000  1
  C  221  1  0.18307550  0.53068300  0.84681450  1
  C  222  1  0.19557000  0.55069750  0.84091250  1
  C  223  1  0.18755500  0.54456050  0.81350850  1
  C  224  1  0.16641650  0.51777600  0.79212650  1
  C  225  1  0.15350550  0.49786200  0.79805050  1
  C  226  1  0.13190150  0.42821650  0.79563100  1
  C  227  1  0.13779250  0.40818850  0.78314500  1
  C  228  1  0.16519250  0.41433550  0.79111500  1
  C  229  1  0.18658250  0.44112800  0.81222850  1
  C  230  1  0.18066900  0.46104650  0.82515150  1
  C  247  1  0.35308250  0.51081800  0.56784150  1
  C  248  1  0.37720150  0.52140250  0.59244100  1
  C  249  1  0.37640100  0.51135000  0.61045900  1
  C  250  1  0.35135050  0.49085050  0.60478000  1
  C  251  1  0.32747000  0.47951250  0.57948450  1
  C  252  1  0.32823400  0.48962000  0.56141900  1
  C  254  1  0.37398450  0.46815500  0.62743550  1
  C  255  1  0.36842600  0.44772750  0.60240850  1
  C  256  1  0.38649850  0.43773350  0.60168800  1
  C  257  1  0.41103000  0.44831150  0.62587350  1
  C  258  1  0.41733050  0.46942100  0.65070650  1
  C  259  1  0.39922300  0.47949000  0.65138200  1
  C  260  1  0.36175400  0.50393850  0.65763850  1
  C  261  1  0.32103450  0.45487800  0.61678350  1
  C  262  1  0.31566650  0.42818900  0.61173950  1
  C  263  1  0.28977550  0.40814350  0.60424000  1
  C  264  1  0.26848050  0.41423350  0.60237600  1
  C  265  1  0.27382550  0.44099650  0.60798300  1
  C  266  1  0.29963450  0.46093900  0.61495650  1
  C  267  1  0.36680800  0.53064650  0.66307850  1
  C  268  1  0.37428300  0.55063200  0.68898900  1
  C  269  1  0.37611300  0.54446300  0.71022900  1
  C  270  1  0.37043950  0.51766350  0.70479500  1
  C  271  1  0.36349000  0.49778050  0.67896650  1
  C  288  1  0.94209600  0.74442900  0.39089200  1
  C  289  1  0.92814150  0.74403850  0.36633300  1
  C  290  1  0.90007500  0.72523950  0.34827350  1
  C  291  1  0.88521150  0.70581300  0.35387550  1
  C  292  1  0.89912300  0.70714200  0.37913400  1
  C  293  1  0.92729600  0.72593900  0.39723600  1
  C  295  1  0.83990650  0.70588700  0.33130550  1
  C  296  1  0.84450800  0.72528550  0.35637150  1
  C  297  1  0.83530750  0.74414350  0.35719600  1
  C  298  1  0.82176900  0.74463000  0.33308300  1
  C  299  1  0.81802800  0.72614950  0.30820850  1
  C  300  1  0.82733900  0.70729400  0.30742400  1
  C  301  1  0.84545500  0.66349800  0.30094600  1
  C  302  1  0.83721000  0.66344200  0.34173300  1
  C  303  1  0.81559450  0.66310500  0.34683850  1
  C  304  1  0.80311450  0.64471150  0.35436800  1
  C  305  1  0.81110950  0.62530200  0.35620950  1
  C  306  1  0.83220500  0.62502350  0.35049850  1
  C  307  1  0.84510250  0.64385400  0.34348250  1
  C  308  1  0.86673300  0.66313750  0.29551250  1
  C  309  1  0.86082150  0.64474400  0.26958850  1
  C  310  1  0.83341450  0.62536950  0.24832100  1
  C  311  1  0.81204050  0.62513150  0.25373600  1
  C  312  1  0.81797300  0.64395900  0.27958300  1
  C  329  1  0.46827400  0.80183150  0.03671550  1
  C  330  1  0.45770900  0.81542800  0.05069900  1
  C  331  1  0.46771600  0.82467200  0.07876300  1
  C  332  1  0.48815350  0.82006700  0.09359950  1
  C  333  1  0.49948250  0.80747350  0.07967100  1
  C  334  1  0.48939700  0.79810300  0.05149600  1
  C  336  1  0.51084100  0.86535950  0.13897750  1
  C  337  1  0.53136950  0.88022850  0.13448600  1
  C  338  1  0.54142000  0.90830550  0.14379050  1
  C  339  1  0.53079450  0.92227600  0.15730950  1
  C  340  1  0.50956350  0.90745300  0.16089450  1
  C  341  1  0.49947100  0.87927500  0.15151200  1
  C  342  1  0.47487700  0.81734150  0.13325050  1
  C  343  1  0.52393350  0.82556250  0.14156700  1
  C  344  1  0.55063550  0.84681850  0.16324400  1
  C  345  1  0.57061300  0.84087350  0.17572850  1
  C  346  1  0.56444550  0.81345600  0.16766450  1
  C  347  1  0.53765650  0.79210200  0.14650850  1
  C  348  1  0.51777500  0.79806850  0.13361150  1
  C  349  1  0.44818700  0.79570650  0.11191850  1
  C  350  1  0.42812350  0.78317450  0.11775100  1
  C  351  1  0.43420300  0.79112000  0.14513100  1
  C  352  1  0.46097200  0.81224850  0.16655850  1
  C  353  1  0.48093200  0.82520850  0.16070550  1
  C  370  1  0.23408950  0.15692150  0.62578900  1
  C  371  1  0.23453750  0.14340150  0.60164400  1
  C  372  1  0.25337600  0.13418350  0.60241050  1
  C  373  1  0.27280650  0.13877050  0.62745100  1
  C  374  1  0.27143500  0.15132050  0.65136050  1
  C  375  1  0.25259000  0.16063450  0.65063250  1
  C  377  1  0.27284150  0.09345500  0.60480950  1
  C  378  1  0.25342850  0.07858650  0.61041900  1
  C  379  1  0.23461550  0.05052350  0.59234700  1
  C  380  1  0.23417800  0.03658000  0.56775500  1
  C  381  1  0.25266550  0.05138750  0.56141400  1
  C  382  1  0.27149250  0.07955100  0.57953650  1
  C  383  1  0.31520350  0.14144700  0.61693250  1
  C  384  1  0.31520600  0.13320400  0.65772900  1
  C  385  1  0.31557950  0.11192900  0.66316250  1
  C  386  1  0.33399850  0.11784400  0.68907450  1
  C  387  1  0.35341550  0.14525300  0.71031750  1
  C  388  1  0.35364650  0.16662500  0.70490350  1
  C  389  1  0.33477950  0.16068900  0.67907450  1
  C  390  1  0.31553000  0.16306350  0.61183250  1
  C  391  1  0.33393950  0.17557600  0.60433250  1
  C  392  1  0.35338350  0.16761950  0.60253100  1
  C  393  1  0.35365550  0.14650750  0.60821200  1
  C  394  1  0.33479700  0.13356450  0.61517650  1
  C  411  1  0.76468600  0.39100700  0.92227600  1
  C  412  1  0.76425700  0.36643800  0.90827000  1
  C  413  1  0.74542200  0.34839900  0.88020900  1
  C  414  1  0.72599500  0.35403000  0.86539300  1
  C  415  1  0.72735000  0.37929200  0.87935500  1
  C  416  1  0.74618200  0.39737050  0.90752450  1
  C  418  1  0.72598800  0.33143200  0.82004400  1
  C  419  1  0.74541050  0.35648250  0.82464000  1
  C  420  1  0.76423550  0.35726600  0.81540150  1
  C  421  1  0.76465950  0.33312100  0.80182950  1
  C  422  1  0.74616050  0.30826150  0.79809400  1
  C  423  1  0.72733150  0.30751950  0.80743400  1
  C  424  1  0.68360750  0.30113800  0.82563950  1
  C  425  1  0.68361550  0.34195650  0.81742300  1
  C  426  1  0.68325800  0.34703650  0.79578950  1
  C  427  1  0.66485600  0.35455150  0.78329550  1
  C  428  1  0.64543800  0.35638250  0.79128050  1
  C  429  1  0.64518450  0.35070750  0.81240300  1
  C  430  1  0.66403400  0.34372200  0.82532300  1
  C  431  1  0.68326700  0.29569650  0.84691850  1
  C  432  1  0.66486350  0.26978050  0.84101000  1
  C  433  1  0.64543400  0.24853650  0.81360850  1
  C  434  1  0.64517300  0.25395800  0.79223200  1
  C  435  1  0.66402250  0.27979300  0.79815950  1
  C  452  1  0.53069700  0.56785250  0.33288950  1
  C  453  1  0.54132600  0.59244250  0.35704250  1
  C  454  1  0.53128950  0.61048150  0.35630100  1
  C  455  1  0.51078150  0.60484250  0.33127900  1
  C  456  1  0.49939150  0.57954750  0.30737400  1
  C  457  1  0.50947400  0.56145550  0.30807650  1
  C  459  1  0.48813300  0.62750700  0.35398400  1
  C  460  1  0.46768500  0.60247600  0.34839500  1
  C  461  1  0.45766650  0.60174150  0.36644700  1
  C  462  1  0.46825850  0.62590900  0.39100450  1
  C  463  1  0.48940650  0.65073950  0.39734300  1
  C  464  1  0.49948600  0.65143350  0.37924750  1
  C  465  1  0.52393100  0.65774050  0.34178550  1
  C  466  1  0.47485900  0.61693750  0.30105450  1
  C  467  1  0.44817850  0.61191500  0.29569850  1
  C  468  1  0.42813500  0.60442650  0.26981350  1
  C  469  1  0.43420550  0.60252200  0.24850150  1
  C  470  1  0.46096950  0.60813350  0.25384300  1
  C  471  1  0.48091800  0.61511550  0.27965350  1
  C  472  1  0.55062700  0.66316050  0.34680850  1
  C  473  1  0.57062750  0.68907300  0.35430250  1
  C  474  1  0.56448350  0.71033800  0.35619650  1
  C  475  1  0.53770350  0.70493300  0.35057250  1
  C  476  1  0.51780350  0.67909750  0.34358900  1
  C  985  1  0.59097100  0.03709550  0.21640250  1
  C  986  1  0.61688600  0.05120450  0.21918550  1
  C  987  1  0.63402150  0.07946550  0.23749700  1
  C  988  1  0.62607650  0.09441650  0.25411600  1
  C  989  1  0.59930500  0.08059650  0.24983750  1
  C  990  1  0.58196150  0.05225450  0.23121400  1
  C  992  1  0.64770050  0.13928200  0.25407650  1
  C  993  1  0.62312800  0.13759850  0.23745150  1
  C  994  1  0.62194250  0.14753300  0.21912550  1
  C  995  1  0.64505850  0.15881400  0.21630650  1
  C  996  1  0.66887900  0.15846350  0.23110750  1
  C  997  1  0.67017550  0.14877950  0.24976000  1
  C  998  1  0.67831200  0.13371050  0.29692150  1
  C  999  1  0.63830050  0.14286700  0.29691650  1
  C  1000  1  0.63926650  0.16805200  0.30109350  1
  C  1001  1  0.63155900  0.18085750  0.31908450  1
  C  1002  1  0.62280350  0.16902600  0.33366550  1
  C  1003  1  0.62372900  0.14504400  0.33124800  1
  C  1004  1  0.63151650  0.13221650  0.31319200  1
  C  1005  1  0.68153950  0.11273700  0.30116250  1
  C  1006  1  0.70725250  0.11794650  0.31915300  1
  C  1007  1  0.73058650  0.14434950  0.33365600  1
  C  1008  1  0.72722850  0.16588900  0.33118750  1
  C  1009  1  0.70136950  0.16063650  0.31314000  1
  C  1026  1  0.40791100  0.62510100  0.44544700  1
  C  1027  1  0.38197050  0.60198900  0.43360550  1
  C  1028  1  0.36483800  0.60316400  0.44473600  1
  C  1029  1  0.37279750  0.62772150  0.46765000  1
  C  1030  1  0.39958300  0.65020100  0.48061800  1
  C  1031  1  0.41693400  0.64891250  0.46963050  1
  C  1033  1  0.35131850  0.60609800  0.49099550  1
  C  1034  1  0.37592500  0.61411500  0.51388900  1
  C  1035  1  0.37721000  0.59700550  0.52502850  1
  C  1036  1  0.35414450  0.57104350  0.51324000  1
  C  1037  1  0.33028750  0.56196750  0.48907000  1
  C  1038  1  0.32890050  0.57928200  0.47805650  1
  C  1039  1  0.32054300  0.61820250  0.45478550  1
  C  1040  1  0.36058800  0.65828550  0.50389750  1
  C  1041  1  0.35960950  0.66151050  0.52811300  1
  C  1042  1  0.36732050  0.68721750  0.54861500  1
  C  1043  1  0.37610500  0.71054600  0.54553300  1
  C  1044  1  0.37517550  0.70718650  0.52062000  1
  C  1045  1  0.36737200  0.68133300  0.50001200  1
  C  1046  1  0.31723350  0.61919000  0.43055750  1
  C  1047  1  0.29147200  0.61138300  0.41006900  1
  C  1048  1  0.26817000  0.60247800  0.41317500  1
  C  1049  1  0.27160550  0.60340050  0.43810100  1
  C  1050  1  0.29751350  0.61130600  0.45869650  1
  C  1067  1  0.17851650  0.92178750  0.51304300  1
  C  1068  1  0.16723650  0.90768800  0.52487850  1
  C  1069  1  0.15730950  0.87943200  0.51376650  1
  C  1070  1  0.15902450  0.86449650  0.49089900  1
  C  1071  1  0.16850500  0.87830350  0.47790850  1
  C  1072  1  0.17815850  0.90663350  0.48886700  1
  C  1074  1  0.11421050  0.81955000  0.46769650  1
  C  1075  1  0.09923350  0.82117250  0.44477600  1
  C  1076  1  0.07096750  0.81118650  0.43364700  1
  C  1077  1  0.05688800  0.79990800  0.44549800  1
  C  1078  1  0.07206800  0.80030300  0.46968900  1
  C  1079  1  0.10041300  0.81003750  0.48067850  1
  C  1080  1  0.16271850  0.82531800  0.50396250  1
  C  1081  1  0.15352700  0.81609250  0.45477450  1
  C  1082  1  0.13257350  0.79084500  0.43059850  1
  C  1083  1  0.13779850  0.77804750  0.41011800  1
  C  1084  1  0.16419600  0.78996550  0.41318450  1
  C  1085  1  0.18572100  0.81401550  0.43805250  1
  C  1086  1  0.18045150  0.82682650  0.45863800  1
  C  1087  1  0.18790600  0.84636350  0.52816050  1
  C  1088  1  0.20077000  0.84122650  0.54869450  1
  C  1089  1  0.18899550  0.81483150  0.54566700  1
  C  1090  1  0.16500800  0.79323150  0.52078050  1
  C  1091  1  0.15212200  0.79841050  0.50014450  1
  C  1108  1  0.82017750  0.33399850  0.74254700  1
  C  1109  1  0.83142600  0.35706700  0.73964800  1
  C  1110  1  0.84132300  0.35581950  0.72128850  1
  C  1111  1  0.83964200  0.33122950  0.70470950  1
  C  1112  1  0.83018100  0.30880550  0.70910250  1
  C  1113  1  0.82053950  0.31016700  0.72779150  1
  C  1115  1  0.88449150  0.35278200  0.70462250  1
  C  1116  1  0.89944700  0.34483850  0.72124050  1
  C  1117  1  0.92770800  0.36197750  0.73954750  1
  C  1118  1  0.94179950  0.38792000  0.74237450  1
  C  1119  1  0.92663150  0.39693500  0.72758150  1
  C  1120  1  0.89829400  0.37957200  0.70893500  1
  C  1121  1  0.83602900  0.34052950  0.66181550  1
  C  1122  1  0.84516350  0.30052600  0.66186350  1
  C  1123  1  0.86611050  0.29726700  0.65758650  1
  C  1124  1  0.86087550  0.27153000  0.63961850  1
  C  1125  1  0.83448250  0.24820050  0.62518800  1
  C  1126  1  0.81296550  0.25158900  0.62768550  1
  C  1127  1  0.81823850  0.27747100  0.64570250  1
  C  1128  1  0.81080550  0.33949400  0.65757850  1
  C  1129  1  0.79797850  0.34715200  0.63954450  1
  C  1130  1  0.80984600  0.35595450  0.62501050  1
  C  1131  1  0.83386650  0.35509550  0.62748100  1
  C  1132  1  0.84670500  0.34733900  0.64556500  1
  C  1149  1  0.35410000  0.74251850  0.80031750  1
  C  1150  1  0.37718200  0.73964900  0.81159800  1
  C  1151  1  0.37593700  0.72128650  0.82149350  1
  C  1152  1  0.35133400  0.70466950  0.81976850  1
  C  1153  1  0.32890300  0.70905100  0.81029900  1
  C  1154  1  0.33025800  0.72773200  0.80064800  1
  C  1156  1  0.37285750  0.70456150  0.86461600  1
  C  1157  1  0.36489600  0.72116800  0.87955700  1
  C  1158  1  0.38202550  0.73948200  0.90782050  1
  C  1159  1  0.40797250  0.74232250  0.92192600  1
  C  1160  1  0.41699850  0.72753300  0.90677250  1
  C  1161  1  0.39965100  0.70888700  0.87843500  1
  C  1162  1  0.36065750  0.66178700  0.81616550  1
  C  1163  1  0.32061300  0.66180050  0.82524150  1
  C  1164  1  0.31731900  0.65751650  0.84617150  1
  C  1165  1  0.29156500  0.63955700  0.84091000  1
  C  1166  1  0.26825800  0.62512950  0.81450150  1
  C  1167  1  0.27168250  0.62763200  0.79300150  1
  C  1168  1  0.29758150  0.64564350  0.79830200  1
  C  1169  1  0.35967450  0.65758350  0.79096900  1
  C  1170  1  0.36737550  0.63957950  0.77817000  1
  C  1171  1  0.37616650  0.62503900  0.79003750  1
  C  1172  1  0.37525050  0.62747550  0.81402700  1
  C  1173  1  0.36745250  0.64552850  0.82683800  1
  C  1190  1  0.94178050  0.51335600  0.15885550  1
  C  1191  1  0.92767750  0.52520550  0.14760500  1
  C  1192  1  0.89941700  0.51408100  0.13767000  1
  C  1193  1  0.88447250  0.49116650  0.13931700  1
  C  1194  1  0.89828700  0.47818350  0.14879950  1
  C  1195  1  0.92662650  0.48917500  0.15849050  1
  C  1197  1  0.83962050  0.46783600  0.09437650  1
  C  1198  1  0.84130550  0.44492750  0.07948400  1
  C  1199  1  0.83141850  0.43378350  0.05123000  1
  C  1200  1  0.82018150  0.44560700  0.03707750  1
  C  1201  1  0.82053850  0.46979850  0.05219100  1
  C  1202  1  0.83016950  0.48080250  0.08052100  1
  C  1203  1  0.84512000  0.50405450  0.14273350  1
  C  1204  1  0.83602800  0.45493200  0.13367000  1
  C  1205  1  0.81080550  0.43074350  0.11268800  1
  C  1206  1  0.79799300  0.41025350  0.11789750  1
  C  1207  1  0.80987550  0.41331300  0.14429650  1
  C  1208  1  0.83389200  0.43819900  0.16584300  1
  C  1209  1  0.84671500  0.45880100  0.16059700  1
  C  1210  1  0.86605050  0.52825150  0.16797300  1
  C  1211  1  0.86080150  0.54874350  0.18069800  1
  C  1212  1  0.83440150  0.54566100  0.16872350  1
  C  1213  1  0.81290000  0.52076800  0.14468600  1
  C  1214  1  0.81819050  0.50017300  0.13194750  1
  C  1231  1  0.64499300  0.44568950  0.38817550  1
  C  1232  1  0.62188850  0.43385950  0.36223300  1
  C  1233  1  0.62309800  0.44497750  0.34509550  1
  C  1234  1  0.64768350  0.46785900  0.35305450  1
  C  1235  1  0.67014050  0.48083850  0.37985500  1
  C  1236  1  0.66882100  0.46985900  0.39720800  1
  C  1238  1  0.62608300  0.49110850  0.33136950  1
  C  1239  1  0.63401400  0.51399650  0.35593550  1
  C  1240  1  0.61686800  0.52511200  0.35710100  1
  C  1241  1  0.59094950  0.51329000  0.33396550  1
  C  1242  1  0.58195550  0.48912850  0.31014700  1
  C  1243  1  0.59930350  0.47813300  0.30888050  1
  C  1244  1  0.63831700  0.45487750  0.30082450  1
  C  1245  1  0.67833000  0.50404000  0.34084300  1
  C  1246  1  0.68157500  0.52825150  0.33984450  1
  C  1247  1  0.70729500  0.54874250  0.34756350  1
  C  1248  1  0.73062000  0.54566300  0.35640400  1
  C  1249  1  0.72724850  0.52076250  0.35551600  1
  C  1250  1  0.70138050  0.50016200  0.34769150  1
  C  1251  1  0.63928400  0.43066050  0.29762150  1
  C  1252  1  0.63157700  0.41014350  0.27192450  1
  C  1253  1  0.62281100  0.41320500  0.24858000  1
  C  1254  1  0.62375200  0.43811900  0.25192300  1
  C  1255  1  0.63154300  0.45874150  0.27776350  1
  C  1272  1  0.05695600  0.21645800  0.57085200  1
  C  1273  1  0.07103400  0.21924550  0.59677550  1
  C  1274  1  0.09929900  0.23753700  0.61392300  1
  C  1275  1  0.11427800  0.25414250  0.60598450  1
  C  1276  1  0.10048450  0.24986250  0.57920600  1
  C  1277  1  0.07213800  0.23125400  0.56184900  1
  C  1279  1  0.15909450  0.25400550  0.62757100  1
  C  1280  1  0.15739500  0.23738650  0.60298650  1
  C  1281  1  0.16727500  0.21901600  0.60176400  1
  C  1282  1  0.17853600  0.21616150  0.62486050  1
  C  1283  1  0.17819600  0.23095850  0.64869150  1
  C  1284  1  0.16855700  0.24964750  0.65002050  1
  C  1285  1  0.15359650  0.29689250  0.65823600  1
  C  1286  1  0.16278000  0.29689900  0.61824300  1
  C  1287  1  0.18797450  0.30106350  0.61924100  1
  C  1288  1  0.20082400  0.31906800  0.61156700  1
  C  1289  1  0.18903050  0.33367250  0.60281300  1
  C  1290  1  0.16504250  0.33127250  0.60371700  1
  C  1291  1  0.15216850  0.31320300  0.61146850  1
  C  1292  1  0.13264000  0.30117750  0.66145950  1
  C  1293  1  0.13786400  0.31918550  0.68717050  1
  C  1294  1  0.16425150  0.33363900  0.71051250  1
  C  1295  1  0.18577700  0.33112600  0.70716000  1
  C  1296  1  0.18051750  0.31307350  0.68130000  1
  C  1313  1  0.53320200  0.15858350  0.92162850  1
  C  1314  1  0.54501050  0.14729450  0.90749500  1
  C  1315  1  0.53390150  0.13741950  0.87924500  1
  C  1316  1  0.51102000  0.13912800  0.86433300  1
  C  1317  1  0.49805650  0.14861900  0.87816850  1
  C  1318  1  0.50905250  0.15828150  0.90650100  1
  C  1320  1  0.48771750  0.09426900  0.81940150  1
  C  1321  1  0.46480050  0.07932900  0.82104650  1
  C  1322  1  0.45367050  0.05107000  0.81111350  1
  C  1323  1  0.46551050  0.03695800  0.79985550  1
  C  1324  1  0.48969950  0.05210800  0.80023050  1
  C  1325  1  0.50068750  0.08044450  0.80990700  1
  C  1326  1  0.52397400  0.14271300  0.82506400  1
  C  1327  1  0.47483100  0.13361150  0.81594850  1
  C  1328  1  0.45063650  0.11266150  0.79071700  1
  C  1329  1  0.43015300  0.11790100  0.77795400  1
  C  1330  1  0.43322450  0.14429850  0.78989600  1
  C  1331  1  0.45812000  0.16581900  0.81391900  1
  C  1332  1  0.47871700  0.16054350  0.82669050  1
  C  1333  1  0.54817650  0.16791750  0.84605900  1
  C  1334  1  0.56869300  0.18071100  0.84086800  1
  C  1335  1  0.56563700  0.16883500  0.81447000  1
  C  1336  1  0.54073650  0.14483900  0.79291150  1
  C  1337  1  0.52011550  0.13203350  0.79814200  1
  C  1354  1  0.76250150  0.80016100  0.33402550  1
  C  1355  1  0.75962200  0.81142600  0.35710400  1
  C  1356  1  0.74126850  0.82133100  0.35586550  1
  C  1357  1  0.72466350  0.81962400  0.33126950  1
  C  1358  1  0.72903850  0.81014900  0.30883450  1
  C  1359  1  0.74772650  0.80050600  0.31018950  1
  C  1361  1  0.72461200  0.86449850  0.35278550  1
  C  1362  1  0.74117550  0.87942000  0.34477750  1
  C  1363  1  0.75950800  0.90768200  0.36189000  1
  C  1364  1  0.76240150  0.92181050  0.38785800  1
  C  1365  1  0.74765300  0.90667500  0.39692700  1
  C  1366  1  0.72898400  0.87834150  0.37959550  1
  C  1367  1  0.68182350  0.81610200  0.34065250  1
  C  1368  1  0.68179500  0.82512250  0.30057250  1
  C  1369  1  0.67748450  0.84604750  0.29729200  1
  C  1370  1  0.65948700  0.84077800  0.27155100  1
  C  1371  1  0.64504000  0.81436600  0.24824700  1
  C  1372  1  0.64757650  0.79287150  0.25165500  1
  C  1373  1  0.66562900  0.79818200  0.27754200  1
  C  1374  1  0.67759350  0.79090300  0.33967850  1
  C  1375  1  0.65961300  0.77815150  0.34742550  1
  C  1376  1  0.64513200  0.79007750  0.35626950  1
  C  1377  1  0.64758950  0.81406450  0.35533800  1
  C  1378  1  0.66561650  0.82682600  0.34749150  1
  C  1395  1  0.23618650  0.57065000  0.03691450  1
  C  1396  1  0.23895000  0.59656200  0.05098400  1
  C  1397  1  0.25725100  0.61372100  0.07924500  1
  C  1398  1  0.27389750  0.60581050  0.09422000  1
  C  1399  1  0.26962300  0.57903300  0.08043500  1
  C  1400  1  0.25099900  0.56165950  0.05209450  1
  C  1402  1  0.27388300  0.62751750  0.13908750  1
  C  1403  1  0.25726100  0.60296400  0.13743400  1
  C  1404  1  0.23895750  0.60180900  0.14739150  1
  C  1405  1  0.23617350  0.62494550  0.15868700  1
  C  1406  1  0.25096800  0.64874850  0.15830650  1
  C  1407  1  0.26960050  0.65001400  0.14859950  1
  C  1408  1  0.31670450  0.65806950  0.13345200  1
  C  1409  1  0.31671750  0.61810950  0.14269700  1
  C  1410  1  0.32091300  0.61913200  0.16790600  1
  C  1411  1  0.33892950  0.61146850  0.18075400  1
  C  1412  1  0.35351800  0.60270050  0.16894450  1
  C  1413  1  0.35108600  0.60358050  0.14493950  1
  C  1414  1  0.33300000  0.61131550  0.13206350  1
  C  1415  1  0.32088150  0.66125700  0.11243450  1
  C  1416  1  0.33888650  0.68694400  0.11760550  1
  C  1417  1  0.35347350  0.71029400  0.14400750  1
  C  1418  1  0.35104700  0.70697550  0.16558050  1
  C  1419  1  0.33297850  0.68114650  0.16036800  1
  C  1436  1  0.46558200  0.38806850  0.62511250  1
  C  1437  1  0.45374900  0.36212150  0.60201250  1
  C  1438  1  0.46487900  0.34499150  0.60321150  1
  C  1439  1  0.48777150  0.35295450  0.62778900  1
  C  1440  1  0.50075000  0.37975600  0.65024600  1
  C  1441  1  0.48976250  0.39710400  0.64893350  1
  C  1443  1  0.51105450  0.33134850  0.60616600  1
  C  1444  1  0.53393350  0.35593100  0.61411750  1
  C  1445  1  0.54505800  0.35713200  0.59698300  1
  C  1446  1  0.53323750  0.33402500  0.57104350  1
  C  1447  1  0.50907150  0.31019650  0.56202500  1
  C  1448  1  0.49807850  0.30888800  0.57936850  1
  C  1449  1  0.47484800  0.30072450  0.61837150  1
  C  1450  1  0.52399650  0.34075000  0.65839350  1
  C  1451  1  0.54820400  0.33974850  0.66162150  1
  C  1452  1  0.56870900  0.34747250  0.68733450  1
  C  1453  1  0.56564350  0.35630600  0.71066850  1
  C  1454  1  0.54074800  0.35541800  0.70731600  1
  C  1455  1  0.52013150  0.34758950  0.68145400  1
  C  1456  1  0.45064200  0.29749000  0.61937700  1
  C  1457  1  0.43014250  0.27177350  0.61165200  1
  C  1458  1  0.43321150  0.24844400  0.60281150  1
  C  1459  1  0.45811250  0.25180550  0.60370900  1
  C  1460  1  0.47872150  0.27766950  0.61153300  1
  C  1969  1  0.35331000  0.78867900  0.76053300  1
  C  1971  1  0.36532600  0.75706150  0.76964450  1
  C  1972  1  0.35435550  0.75844350  0.78733500  1
  C  1974  1  0.34196000  0.79018950  0.77810650  1
  C  1976  1  0.33185550  0.80776900  0.78434950  1
  C  1979  1  0.34629250  0.85309250  0.79478100  1
  C  1983  1  0.64559850  0.40668100  0.43508450  1
  C  1985  1  0.63394150  0.40382400  0.39151150  1
  C  1986  1  0.64475650  0.43246250  0.40385100  1
  C  1988  1  0.65681400  0.43558550  0.44794550  1
  C  1990  1  0.66662000  0.45184700  0.47556300  1
  C  1993  1  0.65373600  0.44793700  0.50747200  1
  C  1997  1  0.97103900  0.17010650  0.52388850  1
  C  1999  1  0.01173850  0.20203900  0.56747450  1
  C  2000  1  0.02805600  0.20055550  0.55515150  1
  C  2002  1  0.98710750  0.16851150  0.51104800  1
  C  2004  1  0.97582950  0.15081200  0.48344750  1
  C  2007  1  0.94021900  0.10574650  0.45217750  1
  C  2011  1  0.02769600  0.55222700  0.19831700  1
  C  2013  1  0.98702950  0.55518850  0.18953200  1
  C  2014  1  0.97067950  0.52653950  0.17179000  1
  C  2016  1  0.01159750  0.52331650  0.18069300  1
  C  2018  1  0.02283000  0.50694800  0.17426400  1
  C  2021  1  0.05840050  0.51119500  0.16476450  1
  C  2025  1  0.57213650  0.19827850  0.00756500  1
  C  2027  1  0.57507250  0.18923300  0.96685850  1
  C  2028  1  0.54641450  0.17154350  0.95053400  1
  C  2030  1  0.54321350  0.18071500  0.99148550  1
  C  2032  1  0.52684950  0.17444900  0.00280150  1
  C  2035  1  0.53083400  0.16401250  0.03768950  1
  C  2039  1  0.18999650  0.52377100  0.95099750  1
  C  2041  1  0.22195050  0.56732050  0.99173300  1
  C  2042  1  0.22033500  0.55497500  0.00801400  1
  C  2044  1  0.18828300  0.51090000  0.96702500  1
  C  2046  1  0.17041750  0.48329200  0.95564650  1
  C  2049  1  0.12562750  0.45144600  0.91978950  1
  C  2053  1  0.42664650  0.43505250  0.62561300  1
  C  2055  1  0.42372900  0.39144950  0.61394250  1
  C  2056  1  0.45238000  0.40376800  0.62485500  1
  C  2058  1  0.45556150  0.44788450  0.63691800  1
  C  2060  1  0.47190900  0.47549250  0.64686950  1
  C  2063  1  0.46764450  0.50681850  0.63313100  1
  C  2067  1  0.80886300  0.76059600  0.33343200  1
  C  2069  1  0.77705450  0.76949450  0.34523400  1
  C  2070  1  0.77846050  0.78721800  0.33430350  1
  C  2072  1  0.81041200  0.77821300  0.32213400  1
  C  2074  1  0.82805400  0.78458650  0.31216350  1
  C  2077  1  0.87310300  0.79402150  0.32588650  1
  C  2081  1  0.54403900  0.95115600  0.17028300  1
  C  2083  1  0.58765150  0.99189050  0.20196100  1
  C  2084  1  0.57529500  0.00818750  0.20052750  1
  C  2086  1  0.53117000  0.96720800  0.16874100  1
  C  2088  1  0.50349600  0.95586050  0.15111350  1
  C  2091  1  0.47267850  0.92097050  0.10577500  1
  C  2095  1  0.21826550  0.00770850  0.55210100  1
  C  2097  1  0.20942000  0.96696800  0.55491500  1
  C  2098  1  0.19155400  0.95069050  0.52628350  1
  C  2100  1  0.20053750  0.99168650  0.52320100  1
  C  2102  1  0.19408250  0.00306850  0.50696600  1
  C  2105  1  0.18516250  0.03893000  0.51094950  1
  C  2109  1  0.78060750  0.33343800  0.78890550  1
  C  2111  1  0.78948600  0.34519200  0.75706500  1
  C  2112  1  0.80722500  0.33427850  0.75849750  1
  C  2114  1  0.79823850  0.32215500  0.79047850  1
  C  2116  1  0.80459000  0.31217850  0.80812050  1
  C  2119  1  0.81398950  0.32588000  0.85315950  1
  C  2123  1  0.45496900  0.62564850  0.40659450  1
  C  2125  1  0.41134200  0.61394550  0.40362250  1
  C  2126  1  0.42363350  0.62485750  0.43227100  1
  C  2128  1  0.46777450  0.63694550  0.43550700  1
  C  2130  1  0.49537000  0.64686800  0.45188100  1
  C  2133  1  0.52667200  0.63307700  0.44765500  1
  C  2137  1  0.35341050  0.52408550  0.55222600  1
  C  2139  1  0.36543750  0.56772550  0.55514200  1
  C  2140  1  0.35443200  0.55537300  0.52647700  1
  C  2142  1  0.34203050  0.51122650  0.52330000  1
  C  2144  1  0.33189950  0.48353800  0.50694050  1
  C  2147  1  0.34629000  0.45261300  0.51091300  1
  C  2151  1  0.64565100  0.19839000  0.16996900  1
  C  2153  1  0.63403150  0.18963850  0.20192400  1
  C  2154  1  0.64483450  0.17180600  0.20039850  1
  C  2156  1  0.65686950  0.18070300  0.16833450  1
  C  2158  1  0.66666150  0.17422900  0.15051350  1
  C  2161  1  0.65376750  0.16523700  0.10571450  1
  C  2165  1  0.97096950  0.76032900  0.40652550  1
  C  2167  1  0.01167300  0.76909650  0.40364750  1
  C  2168  1  0.02798550  0.78690100  0.43228850  1
  C  2170  1  0.98703200  0.77800300  0.43543100  1
  C  2172  1  0.97574650  0.78442700  0.45174650  1
  C  2175  1  0.94012050  0.79386000  0.44738450  1
  C  2179  1  0.02771450  0.43494200  0.78878550  1
  C  2181  1  0.98703800  0.39132750  0.75688050  1
  C  2182  1  0.97070000  0.40363350  0.75831350  1
  C  2184  1  0.01162450  0.44776100  0.79034150  1
  C  2186  1  0.02287050  0.47535850  0.80803200  1
  C  2189  1  0.05846250  0.50665200  0.85310150  1
  C  2193  1  0.57217650  0.33324800  0.52404450  1
  C  2195  1  0.57511000  0.34521550  0.56768550  1
  C  2196  1  0.54645100  0.33425150  0.55535050  1
  C  2198  1  0.54325350  0.32189000  0.51120050  1
  C  2200  1  0.52689300  0.31180500  0.48352500  1
  C  2203  1  0.53088000  0.32625900  0.45264300  1
  C  2207  1  0.19002900  0.62565950  0.19845950  1
  C  2209  1  0.22195050  0.61403450  0.18963900  1
  C  2210  1  0.22033400  0.62477100  0.17174900  1
  C  2212  1  0.18829850  0.63680750  0.18071100  1
  C  2214  1  0.17043650  0.64655650  0.17423600  1
  C  2217  1  0.12565000  0.63361450  0.16531050  1
  C  2221  1  0.42661100  0.95104200  0.76045300  1
  C  2223  1  0.42367050  0.99171350  0.76919100  1
  C  2224  1  0.45232100  0.00805800  0.78692200  1
  C  2226  1  0.45552750  0.96713800  0.77805650  1
  C  2228  1  0.47188700  0.95589100  0.78445900  1
  C  2231  1  0.46766200  0.92032700  0.79396900  1
  C  2235  1  0.80884700  0.00773000  0.43487500  1
  C  2237  1  0.77698350  0.96705250  0.39124900  1
  C  2238  1  0.77837400  0.95071100  0.40355900  1
  C  2240  1  0.81037450  0.99163650  0.44769500  1
  C  2242  1  0.82802800  0.00287650  0.47529950  1
  C  2245  1  0.87309250  0.03845500  0.50663450  1
  C  2249  1  0.54396450  0.55223750  0.33316000  1
  C  2251  1  0.58759100  0.55515300  0.34507800  1
  C  2252  1  0.57525550  0.52650100  0.33416450  1
  C  2254  1  0.53111850  0.52332000  0.32184350  1
  C  2256  1  0.50344900  0.50697650  0.31180650  1
  C  2259  1  0.47261550  0.51102500  0.32631150  1
  C  2263  1  0.21817800  0.16988250  0.62550850  1
  C  2265  1  0.20934300  0.20176550  0.61380850  1
  C  2266  1  0.19152050  0.20024500  0.62462350  1
  C  2268  1  0.20048650  0.16824100  0.63672250  1
  C  2270  1  0.19404900  0.15045000  0.64655400  1
  C  2273  1  0.18509850  0.10566850  0.63371300  1
  C  2277  1  0.78064250  0.40662600  0.95114950  1
  C  2279  1  0.78951600  0.40372850  0.99185750  1
  C  2280  1  0.80724650  0.43238150  0.00817500  1
  C  2282  1  0.79826150  0.43554050  0.96721900  1
  C  2284  1  0.80460800  0.45188300  0.95594100  1
  C  2287  1  0.81401050  0.44761350  0.92030700  1
  C  2291  1  0.45500100  0.78884100  0.00784100  1
  C  2293  1  0.41138200  0.75690950  0.96717450  1
  C  2294  1  0.42368500  0.75829000  0.95082700  1
  C  2296  1  0.46781800  0.79034100  0.99174100  1
  C  2298  1  0.49541800  0.80801150  0.00297650  1
  C  2301  1  0.52673100  0.85308500  0.03854600  1
  C  2641  1  0.20327800  0.81012300  0.56617900  1
  C  2643  1  0.23201900  0.79095950  0.57706550  1
  C  2644  1  0.24377150  0.80887000  0.60534650  1
  C  2646  1  0.21327450  0.82671750  0.59458500  1
  C  2648  1  0.20456350  0.84475250  0.60451700  1
  C  2651  1  0.16518050  0.84844800  0.58917350  1
  C  2655  1  0.79559250  0.36217550  0.60599600  1
  C  2657  1  0.76665300  0.34410650  0.55809250  1
  C  2658  1  0.75498550  0.36072350  0.56425000  1
  C  2660  1  0.78568400  0.38066550  0.61260250  1
  C  2662  1  0.79460750  0.39951600  0.63933950  1
  C  2665  1  0.83292200  0.42260100  0.68312800  1
  C  2669  1  0.75585050  0.14912450  0.35263100  1
  C  2671  1  0.78560700  0.16808550  0.40056350  1
  C  2672  1  0.79597200  0.15016100  0.39443800  1
  C  2674  1  0.76768350  0.13254650  0.34608700  1
  C  2676  1  0.75977050  0.11462800  0.31940850  1
  C  2679  1  0.73985500  0.11024400  0.27603200  1
  C  2683  1  0.24284700  0.59608500  0.39269400  1
  C  2685  1  0.21295850  0.61413650  0.38186900  1
  C  2686  1  0.20261400  0.59765350  0.35358250  1
  C  2688  1  0.23099150  0.57767700  0.36428550  1
  C  2690  1  0.23897750  0.55898100  0.35428750  1
  C  2693  1  0.25911450  0.53568150  0.36986200  1
  C  2697  1  0.61653850  0.39269800  0.22333050  1
  C  2699  1  0.63436650  0.38178950  0.19327200  1
  C  2700  1  0.61779300  0.35350750  0.18287450  1
  C  2702  1  0.59807800  0.36430450  0.21150150  1
  C  2704  1  0.57943000  0.35439300  0.21960800  1
  C  2707  1  0.55551050  0.36981850  0.23877600  1
  C  2711  1  0.16903050  0.35266100  0.73575250  1
  C  2713  1  0.18798800  0.40058550  0.76550250  1
  C  2714  1  0.17013000  0.39446750  0.77593650  1
  C  2716  1  0.15247800  0.34610400  0.74761300  1
  C  2718  1  0.13462900  0.31937900  0.73973400  1
  C  2721  1  0.12904450  0.27554950  0.71896700  1
  C  2725  1  0.38246050  0.60607200  0.77583050  1
  C  2727  1  0.36427500  0.55814950  0.74679550  1
  C  2728  1  0.38080850  0.56431600  0.73504650  1
  C  2730  1  0.40088050  0.61264800  0.76584850  1
  C  2732  1  0.41967600  0.63933650  0.77467150  1
  C  2735  1  0.44310600  0.68268100  0.81370300  1
  C  2739  1  0.82957600  0.56614750  0.18283550  1
  C  2741  1  0.81049450  0.57696150  0.21168700  1
  C  2742  1  0.82844550  0.60524850  0.22349700  1
  C  2744  1  0.84614200  0.59455200  0.19283800  1
  C  2746  1  0.86413500  0.60455000  0.18414800  1
  C  2749  1  0.86869300  0.58899750  0.14526650  1
  C  2753  1  0.37248700  0.73551850  0.14874850  1
  C  2755  1  0.42041550  0.76547950  0.16790100  1
  C  2756  1  0.41430750  0.77587300  0.15000350  1
  C  2758  1  0.36594500  0.74735100  0.13216300  1
  C  2760  1  0.33921600  0.73928950  0.11412150  1
  C  2763  1  0.29610350  0.72022750  0.11034800  1
  C  2767  1  0.41272900  0.22318350  0.59654050  1
  C  2769  1  0.40184550  0.19332450  0.61457600  1
  C  2770  1  0.37356350  0.18287000  0.59795050  1
  C  2772  1  0.38433600  0.21131000  0.57804300  1
  C  2774  1  0.37442300  0.21922000  0.55920900  1
  C  2777  1  0.38970400  0.23999650  0.53619850  1
  C  2781  1  0.58614700  0.18303500  0.80971700  1
  C  2783  1  0.59702200  0.21197650  0.79074150  1
  C  2784  1  0.62530450  0.22373150  0.80865800  1
  C  2786  1  0.61454750  0.19302350  0.82629100  1
  C  2788  1  0.62451550  0.18424950  0.84420700  1
  C  2791  1  0.60893450  0.14522550  0.84853400  1
  C  2795  1  0.62615500  0.77589350  0.36256550  1
  C  2797  1  0.57821250  0.74700200  0.34446550  1
  C  2798  1  0.58433900  0.73517800  0.36092900  1
  C  2800  1  0.63269650  0.76587900  0.38096250  1
  C  2802  1  0.65937100  0.77459450  0.39969350  1
  C  2805  1  0.70278200  0.81353600  0.42313000  1
  C  2809  1  0.20328500  0.35264700  0.59655300  1
  C  2811  1  0.23202350  0.40053950  0.61436800  1
  C  2812  1  0.24374000  0.39437200  0.59780100  1
  C  2814  1  0.21324150  0.34602650  0.57811200  1
  C  2816  1  0.20452100  0.31927400  0.55947600  1
  C  2819  1  0.16516000  0.27618950  0.53550750  1
  C  2823  1  0.79562150  0.39283700  0.14905750  1
  C  2825  1  0.76661950  0.38199200  0.16795850  1
  C  2826  1  0.75494000  0.35371000  0.15011400  1
  C  2828  1  0.78569800  0.36443800  0.13252700  1
  C  2830  1  0.79464100  0.35450900  0.11473400  1
  C  2833  1  0.83293650  0.36976100  0.10923550  1
  C  2837  1  0.75588850  0.56614150  0.36269600  1
  C  2839  1  0.78562050  0.57693250  0.34448300  1
  C  2840  1  0.79598800  0.60522200  0.36096800  1
  C  2842  1  0.76773450  0.59456000  0.38106650  1
  C  2844  1  0.75983600  0.60457450  0.39984150  1
  C  2847  1  0.73990750  0.58904550  0.42329500  1
  C  2851  1  0.24294250  0.60618050  0.80966400  1
  C  2853  1  0.21305700  0.55825650  0.79059850  1
  C  2854  1  0.20272950  0.56441700  0.80855350  1
  C  2856  1  0.23108550  0.61276200  0.82620650  1
  C  2858  1  0.23905800  0.63944900  0.84416400  1
  C  2861  1  0.25916650  0.68286450  0.84867600  1
  C  2865  1  0.61651250  0.18324050  0.35263100  1
  C  2867  1  0.63438200  0.21201900  0.40053500  1
  C  2868  1  0.61781300  0.22373000  0.39436800  1
  C  2870  1  0.59807200  0.19320100  0.34602800  1
  C  2872  1  0.57941650  0.18446700  0.31927750  1
  C  2875  1  0.55548350  0.14511700  0.27618950  1
  C  2879  1  0.16898700  0.77572600  0.39273000  1
  C  2881  1  0.18797150  0.74679500  0.38193450  1
  C  2882  1  0.17013300  0.73507750  0.35364250  1
  C  2884  1  0.15245700  0.76576650  0.36432250  1
  C  2886  1  0.13461600  0.77465100  0.35435700  1
  C  2889  1  0.12905800  0.81291400  0.36954400  1
  C  2893  1  0.38241350  0.73581250  0.56603700  1
  C  2895  1  0.36425900  0.76557650  0.57690250  1
  C  2896  1  0.38080400  0.77595150  0.60518350  1
  C  2898  1  0.40084200  0.74765650  0.59443650  1
  C  2900  1  0.41962750  0.73975100  0.60440250  1
  C  2903  1  0.44304550  0.71982300  0.58879350  1
  C  2907  1  0.82967750  0.22291150  0.60623100  1
  C  2909  1  0.81058150  0.19301300  0.55829150  1
  C  2910  1  0.82854300  0.18268400  0.56441800  1
  C  2912  1  0.84624900  0.21107300  0.61277900  1
  C  2914  1  0.86424550  0.21906050  0.63945700  1
  C  2917  1  0.86876950  0.23910150  0.68288600  1
  C  2921  1  0.37254450  0.59650700  0.18323250  1
  C  2923  1  0.42045450  0.61440600  0.21195850  1
  C  2924  1  0.41433150  0.59789500  0.22373550  1
  C  2926  1  0.36597000  0.57810350  0.19323950  1
  C  2928  1  0.33923650  0.55944700  0.18454850  1
  C  2931  1  0.29612850  0.53540400  0.14520450  1
  C  2935  1  0.41275100  0.14909300  0.77570100  1
  C  2937  1  0.40187050  0.16805650  0.74676800  1
  C  2938  1  0.37359150  0.15021600  0.73510250  1
  C  2940  1  0.38435550  0.13256800  0.76579850  1
  C  2942  1  0.37444200  0.11474250  0.77471750  1
  C  2945  1  0.38973350  0.10919850  0.81297700  1
  C  2949  1  0.58615900  0.36266500  0.73595500  1
  C  2951  1  0.59703350  0.34454150  0.76575300  1
  C  2952  1  0.62531350  0.36106600  0.77610450  1
  C  2954  1  0.61456100  0.38106600  0.74777300  1
  C  2956  1  0.62452200  0.39981400  0.73982800  1
  C  2959  1  0.60890350  0.42319400  0.71984950  1
  C  2963  1  0.62608200  0.80952450  0.22293650  1
  C  2965  1  0.57814450  0.79050950  0.19312100  1
  C  2966  1  0.58428200  0.80844200  0.18276600  1
  C  2968  1  0.63263700  0.82606400  0.21107100  1
  C  2970  1  0.65931700  0.84401600  0.21901700  1
  C  2973  1  0.70275150  0.84856200  0.23912450  1
  H  26  1  0.37698250  0.76702050  0.64474100  1
  H  27  1  0.36447900  0.78788000  0.67564500  1
  H  28  1  0.37128550  0.81836500  0.61112350  1
  H  29  1  0.35946750  0.84032500  0.64295850  1
  H  30  1  0.33056850  0.86714600  0.67582950  1
  H  31  1  0.28722850  0.85726800  0.64498750  1
  H  32  1  0.25900500  0.77224600  0.61124900  1
  H  33  1  0.30260250  0.78195650  0.64301900  1
  H  34  1  0.30900600  0.80444200  0.69462500  1
  H  35  1  0.31021900  0.78763400  0.72557900  1
  H  36  1  0.39541000  0.81788500  0.75711000  1
  H  37  1  0.39436850  0.83390950  0.72561600  1
  H  38  1  0.40481850  0.86934950  0.69446800  1
  H  39  1  0.35071400  0.87096000  0.72580300  1
  H  40  1  0.38123500  0.91847850  0.75727750  1
  H  41  1  0.43462750  0.91711600  0.72540850  1
  H  67  1  0.62160350  0.26715900  0.38938050  1
  H  68  1  0.63411500  0.31052050  0.42282450  1
  H  69  1  0.62717850  0.23901000  0.44623850  1
  H  70  1  0.63901650  0.28262200  0.48010450  1
  H  71  1  0.66822600  0.34447100  0.53601100  1
  H  72  1  0.71162450  0.35695900  0.56937450  1
  H  73  1  0.73956150  0.35126600  0.51234550  1
  H  74  1  0.69591700  0.33946750  0.47856750  1
  H  75  1  0.68975000  0.38483200  0.49493500  1
  H  76  1  0.68862900  0.41468100  0.47702900  1
  H  77  1  0.60338650  0.36125350  0.42217800  1
  H  78  1  0.60433000  0.33069500  0.43913400  1
  H  79  1  0.59378000  0.28898600  0.46395900  1
  H  80  1  0.64813300  0.37435050  0.51986150  1
  H  81  1  0.61767950  0.37537250  0.53693000  1
  H  82  1  0.56403850  0.29018000  0.48198150  1
  H  108  1  0.87703000  0.19167100  0.56945500  1
  H  109  1  0.88703150  0.17085300  0.53603350  1
  H  110  1  0.79205000  0.14026950  0.51250450  1
  H  111  1  0.80188500  0.11836150  0.47866450  1
  H  112  1  0.80793550  0.09171400  0.42281950  1
  H  113  1  0.78708750  0.10170000  0.38939650  1
  H  114  1  0.83833250  0.18668500  0.44638950  1
  H  115  1  0.86027250  0.17686650  0.48022900  1
  H  116  1  0.88934950  0.15438950  0.46396000  1
  H  117  1  0.93711450  0.17119200  0.48190950  1
  H  118  1  0.93849150  0.14084150  0.53678600  1
  H  119  1  0.89097650  0.12481750  0.51979200  1
  H  120  1  0.82442750  0.08932650  0.49485200  1
  H  121  1  0.85403000  0.08788200  0.43906500  1
  H  122  1  0.83809350  0.04038000  0.42204050  1
  H  123  1  0.80770200  0.04157200  0.47686300  1
  H  149  1  0.12167550  0.69168650  0.31402900  1
  H  150  1  0.11168450  0.64828000  0.28318550  1
  H  151  1  0.20665700  0.71966350  0.34778350  1
  H  152  1  0.19683600  0.67600850  0.31601450  1
  H  153  1  0.19081200  0.61418400  0.28324700  1
  H  154  1  0.21161100  0.60157650  0.31407650  1
  H  155  1  0.16020100  0.60715450  0.34763650  1
  H  156  1  0.13831150  0.61908950  0.31588600  1
  H  157  1  0.10930150  0.57384750  0.26430900  1
  H  158  1  0.06154900  0.54408100  0.23328700  1
  H  159  1  0.06034050  0.59770800  0.20170350  1
  H  160  1  0.10784400  0.62818950  0.23326350  1
  H  161  1  0.17430550  0.66981200  0.26443850  1
  H  162  1  0.14483000  0.58442450  0.23327450  1
  H  163  1  0.16083050  0.58347550  0.20176400  1
  H  164  1  0.19107550  0.66868300  0.23345450  1
  H  190  1  0.71157950  0.31409750  0.10164200  1
  H  191  1  0.66818900  0.28317550  0.09161750  1
  H  192  1  0.73952150  0.34776450  0.18660900  1
  H  193  1  0.69588950  0.31591000  0.17675650  1
  H  194  1  0.63412400  0.28304050  0.17072650  1
  H  195  1  0.62160800  0.31388250  0.19166150  1
  H  196  1  0.62710750  0.34756950  0.14033600  1
  H  197  1  0.63895050  0.31580050  0.11830600  1
  H  198  1  0.59372950  0.26417550  0.08923900  1
  H  199  1  0.56397250  0.23320050  0.04148000  1
  H  200  1  0.61765900  0.20170650  0.04018950  1
  H  201  1  0.64812850  0.23322350  0.08770000  1
  H  202  1  0.68975550  0.26436950  0.15421200  1
  H  203  1  0.60434450  0.23308150  0.12466200  1
  H  204  1  0.60343450  0.20159250  0.14067900  1
  H  205  1  0.68866400  0.23340400  0.17100400  1
  H  231  1  0.21167050  0.56946000  0.85702450  1
  H  232  1  0.19083750  0.53604200  0.86702450  1
  H  233  1  0.16029300  0.51250550  0.77204650  1
  H  234  1  0.13836800  0.47867050  0.78187750  1
  H  235  1  0.11168850  0.42284550  0.78790800  1
  H  236  1  0.12167450  0.38942500  0.76705450  1
  H  237  1  0.20665750  0.44639900  0.81832550  1
  H  238  1  0.19684400  0.48023750  0.84028050  1
  H  239  1  0.17427550  0.46389150  0.86929400  1
  H  240  1  0.19102650  0.48177500  0.91704250  1
  H  241  1  0.16081200  0.53676350  0.91849450  1
  H  242  1  0.14483350  0.51982850  0.87098900  1
  H  243  1  0.10935050  0.49492450  0.80444900  1
  H  244  1  0.10782700  0.43908200  0.83399200  1
  H  245  1  0.06032100  0.42207800  0.81803300  1
  H  246  1  0.06159350  0.47695750  0.78770200  1
  H  272  1  0.28718600  0.38941050  0.60162550  1
  H  273  1  0.33054100  0.42286250  0.61415250  1
  H  274  1  0.25899800  0.44623700  0.60714300  1
  H  275  1  0.30261400  0.48011650  0.61899750  1
  H  276  1  0.36450450  0.53605300  0.64826550  1
  H  277  1  0.37701050  0.56942100  0.69167450  1
  H  278  1  0.37125850  0.51236950  0.71958500  1
  H  279  1  0.35943800  0.47858600  0.67593300  1
  H  280  1  0.40482450  0.49493500  0.66979850  1
  H  281  1  0.43465800  0.47700350  0.66867750  1
  H  282  1  0.38126300  0.42221400  0.58342100  1
  H  283  1  0.35072300  0.43918550  0.58436450  1
  H  284  1  0.30904050  0.46402650  0.57380100  1
  H  285  1  0.39440400  0.51989250  0.62820550  1
  H  286  1  0.39548800  0.53695550  0.59775550  1
  H  287  1  0.31029500  0.48205000  0.54406600  1
  H  313  1  0.78706700  0.64477700  0.35711400  1
  H  314  1  0.80787750  0.67560400  0.34451250  1
  H  315  1  0.83832050  0.61105650  0.35133100  1
  H  316  1  0.86022450  0.64280900  0.33940650  1
  H  317  1  0.88694600  0.67557400  0.31036000  1
  H  318  1  0.87693200  0.64476000  0.26693200  1
  H  319  1  0.79195650  0.61118200  0.23892650  1
  H  320  1  0.80180400  0.64292500  0.28260800  1
  H  321  1  0.82435100  0.69452150  0.28898050  1
  H  322  1  0.80766000  0.72557800  0.29027700  1
  H  323  1  0.83809200  0.75715000  0.37549500  1
  H  324  1  0.85399400  0.72555350  0.37437550  1
  H  325  1  0.88928450  0.69436250  0.38476800  1
  H  326  1  0.89090000  0.72556600  0.33056400  1
  H  327  1  0.93841850  0.75705950  0.36108500  1
  H  328  1  0.93704700  0.72532500  0.41458200  1
  H  354  1  0.58939400  0.85696550  0.19181750  1
  H  355  1  0.55602950  0.86703750  0.17101400  1
  H  356  1  0.53236300  0.77201100  0.14035000  1
  H  357  1  0.49858450  0.78191500  0.11844950  1
  H  358  1  0.44286250  0.78799650  0.09171900  1
  H  359  1  0.40938050  0.76707900  0.10159950  1
  H  360  1  0.46620100  0.81832550  0.18662450  1
  H  361  1  0.50010800  0.84033550  0.17690850  1
  H  362  1  0.48395750  0.86943600  0.15440550  1
  H  363  1  0.50196400  0.91720200  0.17125100  1
  H  364  1  0.55697800  0.91857700  0.14108200  1
  H  365  1  0.53992200  0.87105100  0.12501600  1
  H  366  1  0.51492600  0.80448900  0.08948800  1
  H  367  1  0.45918750  0.83417300  0.08794850  1
  H  368  1  0.44219000  0.81818700  0.04043700  1
  H  369  1  0.49696800  0.78771900  0.04173000  1
  H  395  1  0.33398200  0.10173800  0.69173900  1
  H  396  1  0.30308900  0.09171300  0.64833500  1
  H  397  1  0.36762300  0.18670700  0.71969500  1
  H  398  1  0.33580300  0.17685350  0.67604750  1
  H  399  1  0.30303250  0.17077800  0.61417250  1
  H  400  1  0.33391100  0.19166650  0.60165950  1
  H  401  1  0.36765600  0.14043150  0.60742050  1
  H  402  1  0.33585350  0.11844550  0.61925400  1
  H  403  1  0.28426800  0.08938950  0.57390050  1
  H  404  1  0.25327000  0.04163850  0.54406050  1
  H  405  1  0.22160150  0.04024350  0.59760000  1
  H  406  1  0.25312800  0.08774950  0.62814850  1
  H  407  1  0.28422300  0.15428600  0.66978500  1
  H  408  1  0.25310450  0.12474050  0.58439500  1
  H  409  1  0.22153650  0.14066900  0.58337150  1
  H  410  1  0.25319050  0.17099600  0.66858550  1
  H  436  1  0.66489550  0.35725800  0.76722350  1
  H  437  1  0.69575200  0.34470350  0.78806750  1
  H  438  1  0.63120950  0.35153000  0.81850850  1
  H  439  1  0.66299450  0.33965550  0.84045200  1
  H  440  1  0.69575550  0.31052750  0.86713400  1
  H  441  1  0.66490250  0.26712350  0.85712700  1
  H  442  1  0.63119350  0.23916450  0.77215200  1
  H  443  1  0.66297650  0.28282150  0.78199100  1
  H  444  1  0.71453750  0.28908450  0.80444500  1
  H  445  1  0.74554600  0.29031250  0.78769550  1
  H  446  1  0.77726400  0.37555550  0.81818450  1
  H  447  1  0.74572100  0.37450600  0.83415400  1
  H  448  1  0.71456250  0.38494000  0.86955450  1
  H  449  1  0.74571150  0.33067350  0.87100300  1
  H  450  1  0.77727100  0.36116100  0.91851000  1
  H  451  1  0.74558450  0.41471550  0.91731100  1
  H  477  1  0.40938400  0.60176300  0.26720700  1
  H  478  1  0.44284850  0.61430100  0.31056950  1
  H  479  1  0.46620250  0.60727600  0.23900850  1
  H  480  1  0.50009100  0.61914600  0.28262600  1
  H  481  1  0.55600500  0.64832500  0.34444200  1
  H  482  1  0.58940200  0.69174200  0.35699500  1
  H  483  1  0.53243050  0.71974350  0.35144200  1
  H  484  1  0.49862000  0.67608150  0.33956650  1
  H  485  1  0.51494950  0.66985100  0.38487450  1
  H  486  1  0.49699050  0.66870050  0.41468100  1
  H  487  1  0.44212650  0.58347550  0.36118500  1
  H  488  1  0.45912000  0.58444800  0.33066700  1
  H  489  1  0.48387900  0.57388200  0.28897100  1
  H  490  1  0.53987800  0.62823200  0.37431800  1
  H  491  1  0.55690550  0.59774200  0.37530050  1
  H  492  1  0.50186100  0.54409750  0.29012250  1
  H  1010  1  0.63283600  0.19920500  0.32173600  1
  H  1011  1  0.64601100  0.17789900  0.29158200  1
  H  1012  1  0.61856650  0.13666500  0.34244950  1
  H  1013  1  0.63180850  0.11476500  0.31190150  1
  H  1014  1  0.66528450  0.09338550  0.29169600  1
  H  1015  1  0.70864100  0.10227550  0.32185250  1
  H  1016  1  0.74359050  0.18546650  0.34234800  1
  H  1017  1  0.69977550  0.17677950  0.31180800  1
  H  1018  1  0.68784850  0.14900250  0.26011600  1
  H  1019  1  0.68592700  0.16640500  0.22940400  1
  H  1020  1  0.60409000  0.14679200  0.20816000  1
  H  1021  1  0.60594500  0.13005150  0.23909250  1
  H  1022  1  0.59199400  0.09073000  0.26020300  1
  H  1023  1  0.65282700  0.08866250  0.23910050  1
  H  1024  1  0.62376650  0.04098300  0.20820650  1
  H  1025  1  0.56323250  0.04260750  0.22955300  1
  H  1051  1  0.36604350  0.68860750  0.56569100  1
  H  1052  1  0.35286100  0.64525850  0.53122250  1
  H  1053  1  0.38034550  0.72354500  0.51739550  1
  H  1054  1  0.36708350  0.67973650  0.48226600  1
  H  1055  1  0.33345900  0.62601550  0.42742950  1
  H  1056  1  0.29001650  0.61265800  0.39297850  1
  H  1057  1  0.25526450  0.59814800  0.44134450  1
  H  1058  1  0.29916250  0.61157950  0.47645100  1
  H  1059  1  0.31120200  0.57191550  0.46060850  1
  H  1060  1  0.31326550  0.54320450  0.47999500  1
  H  1061  1  0.39509983  0.60393700  0.54212883  1
  H  1062  1  0.39308050  0.63295400  0.52348450  1
  H  1063  1  0.40691000  0.66786250  0.49808550  1
  H  1064  1  0.34602150  0.58597200  0.43511050  1
  H  1065  1  0.37508400  0.58413350  0.41649750  1
  H  1066  1  0.43568700  0.66596000  0.47874300  1
  H  1092  1  0.12214250  0.75965600  0.39307450  1
  H  1093  1  0.11322750  0.78094450  0.42750800  1
  H  1094  1  0.20529650  0.82244150  0.44126700  1
  H  1095  1  0.19658050  0.84432450  0.47635900  1
  H  1096  1  0.19771450  0.86571300  0.53123050  1
  H  1097  1  0.21912250  0.85694850  0.56574200  1
  H  1098  1  0.15666700  0.77366250  0.51759250  1
  H  1099  1  0.13466700  0.78222400  0.48241900  1
  H  1100  1  0.11056900  0.80984950  0.49814550  1
  H  1101  1  0.06243600  0.79235650  0.47880150  1
  H  1102  1  0.06072550  0.81190500  0.41652450  1
  H  1103  1  0.10840750  0.82872700  0.43513350  1
  H  1104  1  0.16875000  0.86817200  0.46047400  1
  H  1105  1  0.14979700  0.87025200  0.52342600  1
  H  1106  1  0.16650800  0.91791650  0.54199850  1
  H  1107  1  0.18613100  0.91628500  0.47978100  1
  H  1133  1  0.87653100  0.27011700  0.63690200  1
  H  1134  1  0.88545850  0.31351200  0.66701450  1
  H  1135  1  0.79339050  0.23523200  0.61657250  1
  H  1136  1  0.80211300  0.27908250  0.64706450  1
  H  1137  1  0.80094700  0.33272900  0.66707300  1
  H  1138  1  0.77961150  0.34584400  0.63685950  1
  H  1139  1  0.84225550  0.36026900  0.61629150  1
  H  1140  1  0.86418150  0.34708600  0.64689250  1
  H  1141  1  0.88815000  0.38688800  0.69858900  1
  H  1142  1  0.93626800  0.41568850  0.72928650  1
  H  1143  1  0.93793533  0.35509400  0.75051033  1
  H  1144  1  0.89026950  0.32600950  0.71959500  1
  H  1145  1  0.82996050  0.29112300  0.69877950  1
  H  1146  1  0.84884900  0.37297200  0.71959500  1
  H  1147  1  0.83217650  0.37493500  0.75058350  1
  H  1148  1  0.81260450  0.29314350  0.72953400  1
  H  1174  1  0.29012300  0.63683300  0.85655200  1
  H  1175  1  0.33354650  0.66694050  0.86552900  1
  H  1176  1  0.25534150  0.61652400  0.77341750  1
  H  1177  1  0.29921950  0.64701300  0.78219050  1
  H  1178  1  0.35291950  0.66708250  0.78110900  1
  H  1179  1  0.36609800  0.63691450  0.75981850  1
  H  1180  1  0.38042250  0.61628800  0.82242050  1
  H  1181  1  0.36716750  0.64683650  0.84429700  1
  H  1182  1  0.40698050  0.69855350  0.86829800  1
  H  1183  1  0.43576050  0.72925750  0.91641900  1
  H  1184  1  0.37513250  0.75044600  0.91803750  1
  H  1185  1  0.34606800  0.71952050  0.87036750  1
  H  1186  1  0.31121600  0.69871700  0.81006600  1
  H  1187  1  0.39309150  0.71959500  0.82901750  1
  H  1188  1  0.39506583  0.75061033  0.81236150  1
  H  1189  1  0.31323000  0.72946900  0.79271600  1
  H  1215  1  0.77961700  0.39320100  0.10222200  1
  H  1216  1  0.80092950  0.42765600  0.09334050  1
  H  1217  1  0.84228800  0.44141400  0.18542000  1
  H  1218  1  0.86419350  0.47652950  0.17674100  1
  H  1219  1  0.88539800  0.53135750  0.17790350  1
  H  1220  1  0.87644350  0.56580850  0.19908000  1
  H  1221  1  0.79332300  0.51754700  0.13620700  1
  H  1222  1  0.80207550  0.48243750  0.11445200  1
  H  1223  1  0.82995550  0.49826850  0.09062100  1
  H  1224  1  0.81262050  0.47889850  0.04251700  1
  H  1225  1  0.83217600  0.41666950  0.04104850  1
  H  1226  1  0.84883000  0.43530300  0.08870800  1
  H  1227  1  0.88815000  0.46071350  0.14899050  1
  H  1228  1  0.89022450  0.52371350  0.13012100  1
  H  1229  1  0.93788283  0.54230033  0.14685250  1
  H  1230  1  0.93626850  0.48004750  0.16639600  1
  H  1256  1  0.70869600  0.56580850  0.34626250  1
  H  1257  1  0.66532600  0.53135150  0.33303950  1
  H  1258  1  0.74360350  0.51753800  0.36071750  1
  H  1259  1  0.69977400  0.48241950  0.34742350  1
  H  1260  1  0.64602000  0.42755900  0.31387900  1
  H  1261  1  0.63285200  0.39307300  0.27055700  1
  H  1262  1  0.61859550  0.44133500  0.23555850  1
  H  1263  1  0.63183350  0.47648350  0.27934100  1
  H  1264  1  0.59199550  0.46068050  0.29121400  1
  H  1265  1  0.56320700  0.48001300  0.29309100  1
  H  1266  1  0.62374250  0.54221550  0.37495400  1
  H  1267  1  0.65282500  0.52362600  0.37313300  1
  H  1268  1  0.68781900  0.49828450  0.38717950  1
  H  1269  1  0.60592450  0.43534250  0.32626200  1
  H  1270  1  0.60403200  0.41674900  0.35533500  1
  H  1271  1  0.68586050  0.47895550  0.41596400  1
  H  1297  1  0.21917550  0.32170550  0.61286300  1
  H  1298  1  0.19779200  0.29152750  0.62597650  1
  H  1299  1  0.15668700  0.34249050  0.59855850  1
  H  1300  1  0.13471200  0.31192300  0.61174100  1
  H  1301  1  0.11330350  0.29176000  0.64519950  1
  H  1302  1  0.12220800  0.32192400  0.68855600  1
  H  1303  1  0.20535200  0.34227100  0.72352400  1
  H  1304  1  0.19664850  0.31170850  0.67970700  1
  H  1305  1  0.16879850  0.26000850  0.66770500  1
  H  1306  1  0.18613800  0.22924250  0.66573050  1
  H  1307  1  0.16651800  0.20804900  0.58390200  1
  H  1308  1  0.14985200  0.23904450  0.58581450  1
  H  1309  1  0.11064300  0.26020850  0.57189950  1
  H  1310  1  0.10847500  0.23913550  0.63272750  1
  H  1311  1  0.06079350  0.20827300  0.60364750  1
  H  1312  1  0.06251150  0.22956700  0.54310350  1
  H  1338  1  0.41308800  0.10224400  0.75957900  1
  H  1339  1  0.44753450  0.09331300  0.78080350  1
  H  1340  1  0.46134400  0.18539800  0.82236000  1
  H  1341  1  0.49645050  0.17666750  0.84417900  1
  H  1342  1  0.55126600  0.17778350  0.86540850  1
  H  1343  1  0.58575750  0.19907000  0.85655450  1
  H  1344  1  0.53753000  0.13643800  0.77333700  1
  H  1345  1  0.50237750  0.11456750  0.78198800  1
  H  1346  1  0.51815350  0.09057600  0.80970750  1
  H  1347  1  0.49880250  0.04245900  0.79228850  1
  H  1348  1  0.43656650  0.04085850  0.81187200  1
  H  1349  1  0.45518400  0.08853150  0.82861750  1
  H  1350  1  0.48061200  0.14885950  0.86805650  1
  H  1351  1  0.54351100  0.12985100  0.87003100  1
  H  1352  1  0.56210983  0.14650600  0.91769883  1
  H  1353  1  0.49994650  0.16620950  0.91615800  1
  H  1379  1  0.65675300  0.85641900  0.27011600  1
  H  1380  1  0.68692250  0.86540700  0.31352250  1
  H  1381  1  0.63646300  0.77328750  0.23531350  1
  H  1382  1  0.66700950  0.78207150  0.27917400  1
  H  1383  1  0.68704350  0.78100100  0.33288150  1
  H  1384  1  0.65691250  0.75978650  0.34613300  1
  H  1385  1  0.63643450  0.82249350  0.36053400  1
  H  1386  1  0.66694500  0.84429050  0.34720450  1
  H  1387  1  0.71867500  0.86822450  0.38695450  1
  H  1388  1  0.74939450  0.91633850  0.41569400  1
  H  1389  1  0.77044633  0.91787283  0.35497150  1
  H  1390  1  0.73950400  0.87020750  0.32594150  1
  H  1391  1  0.71870450  0.80991900  0.29114950  1
  H  1392  1  0.73957750  0.82885350  0.37302000  1
  H  1393  1  0.77055633  0.81218200  0.37496333  1
  H  1394  1  0.74946100  0.79257000  0.29316100  1
  H  1420  1  0.34160000  0.61279850  0.19912450  1
  H  1421  1  0.31139800  0.62588600  0.17774200  1
  H  1422  1  0.36230250  0.59842500  0.13657950  1
  H  1423  1  0.33170400  0.61157700  0.11459800  1
  H  1424  1  0.31138200  0.64498850  0.09308750  1
  H  1425  1  0.34155750  0.68828950  0.10190800  1
  H  1426  1  0.36226250  0.72334400  0.18515750  1
  H  1427  1  0.33168600  0.67958150  0.17653550  1
  H  1428  1  0.27997250  0.66768200  0.14882350  1
  H  1429  1  0.24931100  0.66582050  0.16628950  1
  H  1430  1  0.22799250  0.58396900  0.14666950  1
  H  1431  1  0.25887050  0.58576200  0.12986650  1
  H  1432  1  0.28000200  0.57174650  0.09059250  1
  H  1433  1  0.25886600  0.63253500  0.08841000  1
  H  1434  1  0.22798250  0.60343050  0.04073200  1
  H  1435  1  0.24933450  0.54292450  0.04246700  1
  H  1461  1  0.58578450  0.34619500  0.68872850  1
  H  1462  1  0.55130350  0.33297200  0.64536750  1
  H  1463  1  0.53754200  0.36063850  0.72368350  1
  H  1464  1  0.50239900  0.34733300  0.67986400  1
  H  1465  1  0.44753850  0.31374000  0.62616250  1
  H  1466  1  0.41307150  0.27037550  0.61294200  1
  H  1467  1  0.46133200  0.23544600  0.59851000  1
  H  1468  1  0.49645950  0.27926750  0.61179700  1
  H  1469  1  0.48062650  0.29121200  0.57204150  1
  H  1470  1  0.49996250  0.29315650  0.54326600  1
  H  1471  1  0.56217183  0.37500933  0.60387650  1
  H  1472  1  0.54357200  0.37310600  0.63295000  1
  H  1473  1  0.51821150  0.38708800  0.66791450  1
  H  1474  1  0.45523450  0.32615500  0.58604150  1
  H  1475  1  0.43663350  0.35521800  0.58415450  1
  H  1476  1  0.49887150  0.41586700  0.66596650  1
  H  1975  1  0.37334950  0.74452750  0.76542100  1
  H  1980  1  0.36332350  0.87373250  0.81051300  1
  H  1981  1  0.32739800  0.85225150  0.79387850  1
  H  1982  1  0.34517550  0.84944950  0.77513100  1
  H  1989  1  0.62608150  0.39161100  0.37098250  1
  H  1994  1  0.63681350  0.44604450  0.51143800  1
  H  1995  1  0.67246000  0.46645700  0.52515700  1
  H  1996  1  0.65586900  0.42995100  0.50531700  1
  H  2003  1  0.02003800  0.21472450  0.58799750  1
  H  2008  1  0.93475450  0.08497850  0.44844100  1
  H  2009  1  0.94051800  0.10658150  0.43423850  1
  H  2010  1  0.92439850  0.10985500  0.45461450  1
  H  2017  1  0.97875750  0.56743650  0.19392500  1
  H  2022  1  0.06384600  0.51287300  0.14943600  1
  H  2023  1  0.05809000  0.49296550  0.16533350  1
  H  2024  1  0.07424150  0.52946700  0.18467550  1
  H  2031  1  0.58733200  0.19347750  0.95856450  1
  H  2036  1  0.53215000  0.14829050  0.04260650  1
  H  2037  1  0.51281850  0.16488000  0.03771850  1
  H  2038  1  0.54934600  0.18367650  0.05370650  1
  H  2045  1  0.23465350  0.58784450  0.00006600  1
  H  2050  1  0.10474700  0.44752550  0.91390350  1
  H  2051  1  0.12660450  0.43374050  0.92063000  1
  H  2052  1  0.12996200  0.45358300  0.90397600  1
  H  2059  1  0.41148950  0.37092700  0.60608150  1
  H  2064  1  0.46596450  0.51059350  0.61613000  1
  H  2065  1  0.48586850  0.52473950  0.65193300  1
  H  2066  1  0.44936700  0.50437300  0.63476700  1
  H  2073  1  0.76439700  0.76513650  0.35310550  1
  H  2078  1  0.89388800  0.80935000  0.34287200  1
  H  2079  1  0.87220650  0.79339850  0.30706500  1
  H  2080  1  0.86901650  0.77412200  0.32428950  1
  H  2087  1  0.60820600  0.00021000  0.21451900  1
  H  2092  1  0.46911750  0.91607000  0.08515050  1
  H  2093  1  0.45460250  0.92089950  0.10656700  1
  H  2094  1  0.47519100  0.90496600  0.10943500  1
  H  2101  1  0.21377000  0.95863150  0.56710850  1
  H  2106  1  0.17015650  0.04481200  0.51288050  1
  H  2107  1  0.18534100  0.03809950  0.49242150  1
  H  2108  1  0.20529850  0.05474100  0.52892250  1
  H  2115  1  0.78513450  0.35306500  0.74440850  1
  H  2120  1  0.82929900  0.34286500  0.87394600  1
  H  2121  1  0.81338600  0.30706400  0.85226500  1
  H  2122  1  0.79407950  0.32425700  0.84905550  1
  H  2129  1  0.39082100  0.60609200  0.39136800  1
  H  2134  1  0.53042100  0.61606300  0.44598900  1
  H  2135  1  0.54459750  0.65187300  0.46588450  1
  H  2136  1  0.52425500  0.63470500  0.42937900  1
  H  2143  1  0.37347100  0.58828300  0.56739600  1
  H  2148  1  0.36330700  0.44898350  0.51220050  1
  H  2149  1  0.32738450  0.43457300  0.49291950  1
  H  2150  1  0.34517500  0.45513950  0.52944850  1
  H  2157  1  0.62618300  0.19400550  0.21460050  1
  H  2162  1  0.63683550  0.15020850  0.08482900  1
  H  2163  1  0.67247950  0.16541650  0.10674200  1
  H  2164  1  0.65591900  0.18536200  0.11000100  1
  H  2171  1  0.01997650  0.76471000  0.39142850  1
  H  2176  1  0.93464100  0.80914750  0.44563450  1
  H  2177  1  0.94042700  0.79334200  0.46563200  1
  H  2178  1  0.92430600  0.77391950  0.42913750  1
  H  2185  1  0.97875650  0.37080950  0.74420000  1
  H  2190  1  0.06392250  0.51039600  0.87386950  1
  H  2191  1  0.05814450  0.52458000  0.85225150  1
  H  2192  1  0.07429500  0.50423250  0.84900550  1
  H  2199  1  0.58736750  0.35323050  0.58823800  1
  H  2204  1  0.53219000  0.34330300  0.44905400  1
  H  2205  1  0.51287350  0.30737550  0.43459000  1
  H  2206  1  0.54940100  0.32512350  0.45514250  1
  H  2213  1  0.23465000  0.60620600  0.19399800  1
  H  2218  1  0.10476750  0.61665850  0.15031500  1
  H  2219  1  0.12663000  0.65230250  0.16545850  1
  H  2220  1  0.12998450  0.63580300  0.18545650  1
  H  2227  1  0.41142000  0.99998800  0.76481100  1
  H  2232  1  0.46599900  0.91488900  0.80930500  1
  H  2233  1  0.48588700  0.92063750  0.79338850  1
  H  2234  1  0.44938350  0.90448350  0.77406500  1
  H  2241  1  0.76432100  0.95877500  0.37072800  1
  H  2246  1  0.89386950  0.04390550  0.51041300  1
  H  2247  1  0.87220350  0.03814400  0.52455050  1
  H  2248  1  0.86902000  0.05429100  0.50419500  1
  H  2255  1  0.60814000  0.56739850  0.35306550  1
  H  2260  1  0.46906500  0.51238550  0.34338550  1
  H  2261  1  0.45454900  0.49299650  0.30745850  1
  H  2262  1  0.47509300  0.52951900  0.32512800  1
  H  2269  1  0.21369000  0.21442600  0.60593900  1
  H  2274  1  0.17007000  0.08477150  0.61680550  1
  H  2275  1  0.18531300  0.10672700  0.65244600  1
  H  2276  1  0.20521650  0.10995900  0.63584150  1
  H  2283  1  0.78516350  0.39149650  0.00015500  1
  H  2288  1  0.82932500  0.44595300  0.91482900  1
  H  2289  1  0.81339600  0.46582400  0.92060500  1
  H  2290  1  0.79410550  0.42932150  0.90449700  1
  H  2297  1  0.39086200  0.74423900  0.95890100  1
  H  2302  1  0.53048900  0.87385600  0.04399200  1
  H  2303  1  0.54465350  0.85221550  0.03823300  1
  H  2304  1  0.52430750  0.84901150  0.05438800  1
  H  2647  1  0.23962400  0.77889300  0.57000500  1
  H  2652  1  0.14333000  0.83676200  0.58186300  1
  H  2653  1  0.16736500  0.85182350  0.57290950  1
  H  2654  1  0.17387100  0.86821800  0.60724600  1
  H  2661  1  0.75894000  0.32933850  0.53843250  1
  H  2666  1  0.85501050  0.43642950  0.69382900  1
  H  2667  1  0.82947950  0.40391400  0.68425550  1
  H  2668  1  0.82432050  0.43269400  0.69372250  1
  H  2675  1  0.79034500  0.17995200  0.42018200  1
  H  2680  1  0.74370800  0.12178850  0.26561950  1
  H  2681  1  0.72021450  0.10652450  0.27501100  1
  H  2682  1  0.73848200  0.09062750  0.26507850  1
  H  2689  1  0.20823300  0.62903900  0.38894800  1
  H  2694  1  0.25538150  0.52145500  0.37761250  1
  H  2695  1  0.27873450  0.55435000  0.38573150  1
  H  2696  1  0.26045450  0.52609700  0.35159550  1
  H  2703  1  0.64904200  0.38883250  0.18827050  1
  H  2708  1  0.54104500  0.37722850  0.23449050  1
  H  2709  1  0.57398950  0.38600600  0.25842550  1
  H  2710  1  0.54605550  0.35171500  0.24040050  1
  H  2717  1  0.19994550  0.42023150  0.77036700  1
  H  2722  1  0.14038950  0.26480250  0.72205500  1
  H  2723  1  0.12446500  0.27443350  0.69915750  1
  H  2724  1  0.10985250  0.26499050  0.71848800  1
  H  2731  1  0.34938450  0.53852550  0.73900400  1
  H  2736  1  0.45732450  0.69305700  0.83566750  1
  H  2737  1  0.42448550  0.68371300  0.81096450  1
  H  2738  1  0.45274900  0.69366250  0.80509450  1
  H  2745  1  0.79867550  0.56988450  0.21949700  1
  H  2750  1  0.85721000  0.58126600  0.12329400  1
  H  2751  1  0.87242700  0.57311150  0.14804150  1
  H  2752  1  0.88830400  0.60725800  0.15395700  1
  H  2759  1  0.44007200  0.77043600  0.17995600  1
  H  2764  1  0.28591700  0.72457000  0.12202000  1
  H  2765  1  0.29488700  0.70056950  0.10691950  1
  H  2766  1  0.28505950  0.71858850  0.09060100  1
  H  2773  1  0.40889300  0.18841900  0.62933300  1
  H  2778  1  0.39798050  0.23689900  0.52238150  1
  H  2779  1  0.40494000  0.25979500  0.55490400  1
  H  2780  1  0.37101550  0.24050850  0.52610700  1
  H  2787  1  0.58992350  0.21973350  0.77886700  1
  H  2792  1  0.60125600  0.12327150  0.83697850  1
  H  2793  1  0.59298450  0.14790150  0.85220800  1
  H  2794  1  0.62715000  0.15388050  0.86817250  1
  H  2801  1  0.55858900  0.73918800  0.32956200  1
  H  2806  1  0.71323000  0.83549750  0.43739950  1
  H  2807  1  0.70379150  0.81082250  0.40450300  1
  H  2808  1  0.71371200  0.80484950  0.43269850  1
  H  2815  1  0.23964600  0.42021650  0.62903850  1
  H  2820  1  0.14329550  0.26601400  0.52100450  1
  H  2821  1  0.16740100  0.27501550  0.55397450  1
  H  2822  1  0.17382950  0.26510850  0.52609100  1
  H  2829  1  0.75889100  0.38904950  0.17988550  1
  H  2834  1  0.85503400  0.37807250  0.12062850  1
  H  2835  1  0.82943650  0.38495300  0.10460350  1
  H  2836  1  0.82436200  0.35104400  0.09007100  1
  H  2843  1  0.79033900  0.56979500  0.32958900  1
  H  2848  1  0.74374700  0.58134150  0.43755150  1
  H  2849  1  0.72026250  0.57313800  0.40467450  1
  H  2850  1  0.73855000  0.60729750  0.43288750  1
  H  2857  1  0.20831900  0.53862500  0.77879200  1
  H  2862  1  0.25542150  0.69333400  0.83716850  1
  H  2863  1  0.27879300  0.68382850  0.85244050  1
  H  2864  1  0.26049850  0.69380400  0.86827450  1
  H  2871  1  0.64907250  0.21965700  0.42020750  1
  H  2876  1  0.54101050  0.12324550  0.26601100  1
  H  2877  1  0.57395900  0.14739950  0.27501650  1
  H  2878  1  0.54603500  0.15377150  0.26511050  1
  H  2885  1  0.19993000  0.73910450  0.38902250  1
  H  2890  1  0.14041250  0.83500300  0.37779850  1
  H  2891  1  0.12447950  0.80945850  0.38477900  1
  H  2892  1  0.10986600  0.80428500  0.35083400  1
  H  2899  1  0.34937200  0.77031600  0.56980800  1
  H  2904  1  0.45726200  0.72365950  0.58104450  1
  H  2905  1  0.42442000  0.70017400  0.57291100  1
  H  2906  1  0.45268550  0.71848100  0.60704250  1
  H  2913  1  0.79875100  0.18827050  0.53866350  1
  H  2918  1  0.85728900  0.23530200  0.69336700  1
  H  2919  1  0.87246050  0.25871800  0.68385750  1
  H  2920  1  0.88840450  0.24049100  0.69381050  1
  H  2927  1  0.44011850  0.62908650  0.21955600  1
  H  2932  1  0.28594550  0.52087700  0.12334650  1
  H  2933  1  0.29491900  0.55384900  0.14741700  1
  H  2934  1  0.28507900  0.52600100  0.15390500  1
  H  2941  1  0.40891900  0.18000300  0.73905200  1
  H  2946  1  0.39804550  0.12056450  0.83507700  1
  H  2947  1  0.40493500  0.10460050  0.80946150  1
  H  2948  1  0.37102950  0.09001700  0.80438850  1
  H  2955  1  0.58993700  0.32967050  0.77051050  1
  H  2960  1  0.60117550  0.43743150  0.72367700  1
  H  2961  1  0.59299600  0.40455300  0.70022200  1
  H  2962  1  0.62713400  0.43279200  0.71846600  1
  H  2969  1  0.55852050  0.77872900  0.18841950  1
  H  2974  1  0.71322150  0.83705050  0.23539900  1
  H  2975  1  0.70374300  0.85237900  0.25877100  1
  H  2976  1  0.71366950  0.86813400  0.24040350  1
  N  1970  1  0.36419350  0.77196000  0.75701750  1
  N  1973  1  0.34314700  0.77493750  0.79069150  1
  N  1984  1  0.63496450  0.39231200  0.40752350  1
  N  1987  1  0.65572300  0.44699700  0.43151700  1
  N  1998  1  0.98421600  0.18704350  0.55144650  1
  N  2001  1  0.01494200  0.18388000  0.52748200  1
  N  2012  1  0.01454800  0.56664750  0.20205050  1
  N  2015  1  0.98376650  0.51195050  0.16824600  1
  N  2026  1  0.58655100  0.20182850  0.99438150  1
  N  2029  1  0.53183050  0.16815900  0.96365050  1
  N  2040  1  0.20698000  0.55132400  0.96420800  1
  N  2043  1  0.20359150  0.52731450  0.99486800  1
  N  2054  1  0.41224600  0.40748750  0.61495350  1
  N  2057  1  0.46695000  0.43144200  0.63587900  1
  N  2068  1  0.79200800  0.75692500  0.34415300  1
  N  2071  1  0.79506700  0.79070250  0.32322850  1
  N  2082  1  0.57163250  0.96436600  0.18704950  1
  N  2085  1  0.54759950  0.99504700  0.18399350  1
  N  2096  1  0.22199700  0.99449450  0.56644650  1
  N  2099  1  0.18799050  0.96384350  0.51177100  1
  N  2110  1  0.77692700  0.34413650  0.77203150  1
  N  2113  1  0.81071800  0.32322450  0.77512350  1
  N  2124  1  0.42740400  0.61497500  0.39216700  1
  N  2127  1  0.45130650  0.63588600  0.44686650  1
  N  2138  1  0.36431200  0.55169100  0.56663300  1
  N  2141  1  0.34320500  0.52766750  0.51190550  1
  N  2152  1  0.63504150  0.20215350  0.18691700  1
  N  2155  1  0.65578650  0.16821750  0.18368700  1
  N  2166  1  0.98415150  0.75656950  0.39214900  1
  N  2169  1  0.01486700  0.79047050  0.44683850  1
  N  2180  1  0.01455750  0.40737900  0.77187850  1
  N  2183  1  0.98379300  0.43130600  0.77496700  1
  N  2194  1  0.58658950  0.34410500  0.55164150  1
  N  2197  1  0.53187100  0.32306400  0.52765300  1
  N  2208  1  0.20699850  0.61507250  0.20221300  1
  N  2211  1  0.20359500  0.63569400  0.16816400  1
  N  2222  1  0.41219750  0.96419400  0.75671050  1
  N  2225  1  0.46690450  0.99496700  0.79047250  1
  N  2236  1  0.79197400  0.99457300  0.40730500  1
  N  2239  1  0.79499800  0.96380550  0.43123550  1
  N  2250  1  0.57155500  0.56663950  0.34397450  1
  N  2253  1  0.54756250  0.51192850  0.32301500  1
  N  2264  1  0.22189750  0.18679650  0.61485700  1
  N  2267  1  0.18797050  0.18356350  0.63561300  1
  N  2278  1  0.77696300  0.39223700  0.96433500  1
  N  2281  1  0.81073400  0.44694050  0.99505150  1
  N  2292  1  0.42743750  0.77194250  0.99469400  1
  N  2295  1  0.45135850  0.77493350  0.96391200  1
  N  2642  1  0.21315950  0.79306950  0.55882700  1
  N  2645  1  0.23355250  0.82562150  0.61252300  1
  N  2656  1  0.78557200  0.34479100  0.57906800  1
  N  2659  1  0.76534300  0.37825200  0.59122000  1
  N  2670  1  0.76533300  0.16600900  0.37955000  1
  N  2673  1  0.78656200  0.13353000  0.36748400  1
  N  2684  1  0.23330900  0.61347700  0.40006200  1
  N  2687  1  0.21208300  0.58016000  0.34638000  1
  N  2698  1  0.63378350  0.40004550  0.21364200  1
  N  2701  1  0.60039250  0.34635300  0.19245150  1
  N  2712  1  0.18593900  0.37957750  0.74525450  1
  N  2715  1  0.15350850  0.36751450  0.76653500  1
  N  2726  1  0.36500250  0.57914400  0.76574450  1
  N  2729  1  0.39837850  0.59127450  0.74542300  1
  N  2740  1  0.81265000  0.55876350  0.19283350  1
  N  2743  1  0.84512800  0.61245600  0.21321700  1
  N  2754  1  0.39941250  0.74516100  0.16578450  1
  N  2757  1  0.38734950  0.76634700  0.13325850  1
  N  2768  1  0.42008850  0.21363150  0.61391600  1
  N  2771  1  0.36639750  0.19232100  0.58043150  1
  N  2782  1  0.57879350  0.19307150  0.79282100  1
  N  2785  1  0.63247800  0.21340300  0.82529800  1
  N  2796  1  0.59923300  0.76588300  0.34516200  1
  N  2799  1  0.61129600  0.74547250  0.37844850  1
  N  2810  1  0.21318350  0.37958600  0.61378250  1
  N  2813  1  0.23350300  0.36739100  0.58042200  1
  N  2824  1  0.78557550  0.40022150  0.16593200  1
  N  2827  1  0.76531950  0.34651550  0.13353500  1
  N  2838  1  0.76535950  0.55874500  0.34524450  1
  N  2841  1  0.78659600  0.61244850  0.37852750  1
  N  2852  1  0.23341200  0.57925800  0.79274900  1
  N  2855  1  0.21217300  0.59137600  0.82520600  1
  N  2866  1  0.63377550  0.19316800  0.37957150  1
  N  2869  1  0.60040100  0.21347900  0.36739300  1
  N  2880  1  0.18590500  0.76573100  0.40013900  1
  N  2883  1  0.15350700  0.74540650  0.34642650  1
  N  2894  1  0.36496550  0.74529500  0.55867450  1
  N  2897  1  0.39835800  0.76654200  0.61236500  1
  N  2908  1  0.81273700  0.21335800  0.57930600  1
  N  2911  1  0.84523450  0.19216450  0.59137900  1
  N  2922  1  0.39946550  0.61375650  0.19309100  1
  N  2925  1  0.38736750  0.58048400  0.21353050  1
  N  2936  1  0.42011200  0.16599950  0.76568050  1
  N  2939  1  0.36642000  0.13360400  0.74545800  1
  N  2950  1  0.57880650  0.34524050  0.74546400  1
  N  2953  1  0.63249400  0.37859500  0.76667000  1
  N  2964  1  0.59916000  0.79264400  0.21344700  1
  N  2967  1  0.61124150  0.82507950  0.19218900  1
  O  1977  1  0.31240800  0.79964400  0.78806800  1
  O  1978  1  0.35146950  0.83400450  0.80224800  1
  O  1991  1  0.68568350  0.47526250  0.48684900  1
  O  1992  1  0.64735300  0.44957250  0.48277550  1
  O  2005  1  0.98789950  0.15815250  0.47195100  1
  O  2006  1  0.96675400  0.12440850  0.47656750  1
  O  2019  1  0.01073800  0.48339700  0.16956700  1
  O  2020  1  0.03188000  0.50908250  0.15690450  1
  O  2033  1  0.50367850  0.17071100  0.99094150  1
  O  2034  1  0.52857900  0.15656150  0.01115050  1
  O  2047  1  0.17812500  0.47197700  0.96777600  1
  O  2048  1  0.14394650  0.47613350  0.94612700  1
  O  2061  1  0.49545700  0.48696650  0.66573350  1
  O  2062  1  0.46977200  0.48241850  0.62738150  1
  O  2075  1  0.82065250  0.78925700  0.29329050  1
  O  2076  1  0.85447200  0.80193700  0.33163500  1
  O  2089  1  0.49214500  0.96769200  0.15919300  1
  O  2090  1  0.49692950  0.94753000  0.12489150  1
  O  2103  1  0.18969400  0.99094250  0.48353450  1
  O  2104  1  0.17712300  0.01258700  0.50929200  1
  O  2117  1  0.80927200  0.29331200  0.80073300  1
  O  2118  1  0.82191800  0.33164700  0.83454300  1
  O  2131  1  0.50683450  0.66573300  0.47542650  1
  O  2132  1  0.50226450  0.62736000  0.44976150  1
  O  2145  1  0.31244750  0.47223100  0.48378050  1
  O  2146  1  0.35149350  0.47688850  0.50864000  1
  O  2159  1  0.68571650  0.16986450  0.15828500  1
  O  2160  1  0.64738450  0.15723700  0.12403750  1
  O  2173  1  0.98781950  0.78917650  0.47532100  1
  O  2174  1  0.96665500  0.80173800  0.44952800  1
  O  2187  1  0.01078000  0.48683250  0.80067250  1
  O  2188  1  0.03193850  0.48224700  0.83443650  1
  O  2201  1  0.50372350  0.29236450  0.47220600  1
  O  2202  1  0.52861500  0.33143100  0.47692000  1
  O  2215  1  0.17814550  0.66558250  0.16982000  1
  O  2216  1  0.14396500  0.62724650  0.15728350  1
  O  2229  1  0.49543050  0.96796900  0.78912950  1
  O  2230  1  0.46977400  0.94684800  0.80182900  1
  O  2243  1  0.82062700  0.99078600  0.48675800  1
  O  2244  1  0.85444150  0.01193300  0.48222850  1
  O  2257  1  0.49211050  0.48378750  0.29239400  1
  O  2258  1  0.49688800  0.50875550  0.33146750  1
  O  2271  1  0.18970100  0.15824150  0.66561750  1
  O  2272  1  0.17706300  0.12396250  0.62730450  1
  O  2285  1  0.80928100  0.47542650  0.96801850  1
  O  2286  1  0.82194050  0.44976150  0.94684700  1
  O  2299  1  0.50688300  0.80062500  0.99088900  1
  O  2300  1  0.50232450  0.83441950  0.01202700  1
  O  2649  1  0.21948900  0.86331700  0.62847800  1
  O  2650  1  0.17758800  0.83285250  0.59570650  1
  O  2663  1  0.78007950  0.40919150  0.64289700  1
  O  2664  1  0.82171250  0.41697850  0.65517700  1
  O  2677  1  0.76581800  0.09649900  0.31563800  1
  O  2678  1  0.76219950  0.12624700  0.30395650  1
  O  2691  1  0.23287600  0.54912600  0.33009500  1
  O  2692  1  0.23669800  0.54115500  0.36354200  1
  O  2705  1  0.57030450  0.33040550  0.21413200  1
  O  2706  1  0.56134900  0.36330900  0.21662200  1
  O  2719  1  0.11656950  0.31586650  0.74588700  1
  O  2720  1  0.14584250  0.30349050  0.74131300  1
  O  2733  1  0.42955450  0.64314550  0.76036600  1
  O  2734  1  0.43750850  0.65475050  0.80175500  1
  O  2747  1  0.88224150  0.62873500  0.19850050  1
  O  2748  1  0.85260300  0.59531800  0.15707100  1
  O  2761  1  0.33561850  0.74473850  0.09559300  1
  O  2762  1  0.32411500  0.74234500  0.12599800  1
  O  2775  1  0.35021550  0.21308650  0.54951200  1
  O  2776  1  0.38409450  0.21763600  0.54177050  1
  O  2789  1  0.64867850  0.19860600  0.86236850  1
  O  2790  1  0.61533100  0.15718000  0.83257300  1
  O  2803  1  0.66312400  0.76022400  0.40950200  1
  O  2804  1  0.67486550  0.80166350  0.41757500  1
  O  2817  1  0.21941500  0.31562550  0.55039850  1
  O  2818  1  0.17753400  0.30418450  0.54135450  1
  O  2831  1  0.78014900  0.33028900  0.09668500  1
  O  2832  1  0.82175550  0.36420350  0.12600500  1
  O  2845  1  0.76590150  0.62875600  0.40967150  1
  O  2846  1  0.76225050  0.59537250  0.41771300  1
  O  2859  1  0.23295250  0.64321700  0.86225250  1
  O  2860  1  0.23676300  0.65496700  0.83259900  1
  O  2873  1  0.57029800  0.19933500  0.31563100  1
  O  2874  1  0.56132700  0.15747150  0.30418350  1
  O  2887  1  0.11655500  0.76010750  0.33014550  1
  O  2888  1  0.14584300  0.80175250  0.36399150  1
  O  2901  1  0.42950650  0.74581800  0.62858550  1
  O  2902  1  0.43745650  0.74216200  0.59514850  1
  O  2915  1  0.88237800  0.21301700  0.64320400  1
  O  2916  1  0.85270950  0.21670450  0.65498700  1
  O  2929  1  0.33562950  0.55040050  0.19947700  1
  O  2930  1  0.32413650  0.54129200  0.15757150  1
  O  2943  1  0.35022500  0.09669000  0.76022400  1
  O  2944  1  0.38414700  0.12598250  0.80183150  1
  O  2957  1  0.64869800  0.40966600  0.74587000  1
  O  2958  1  0.61528550  0.41765800  0.74222150  1
  O  2971  1  0.66307000  0.86208250  0.21288150  1
  O  2972  1  0.67484150  0.83245450  0.21674000  1
  Si  7  1  0.35188450  0.83187500  0.68452150  1
  Si  48  1  0.64676550  0.33187700  0.47942250  1
  Si  89  1  0.85187200  0.12689200  0.47943200  1
  Si  130  1  0.14685900  0.62684000  0.27443400  1
  Si  171  1  0.64674350  0.27432200  0.12675950  1
  Si  212  1  0.14687000  0.47944800  0.83186200  1
  Si  253  1  0.35189050  0.47945650  0.62679500  1
  Si  294  1  0.85180250  0.68438150  0.33182000  1
  Si  335  1  0.49945300  0.83194450  0.12698850  1
  Si  376  1  0.29429100  0.12685800  0.62687000  1
  Si  417  1  0.70452200  0.33200000  0.83198600  1
  Si  458  1  0.49942950  0.62689500  0.33188950  1
  Si  991  1  0.64778550  0.12775900  0.27588750  1
  Si  1032  1  0.35112100  0.62776700  0.47933100  1
  Si  1073  1  0.14756000  0.83117650  0.47933450  1
  Si  1114  1  0.85114350  0.33107650  0.68287400  1
  Si  1155  1  0.35117900  0.68282750  0.83126150  1
  Si  1196  1  0.85112150  0.47949850  0.12771400  1
  Si  1237  1  0.64779250  0.47947050  0.33133400  1
  Si  1278  1  0.14762850  0.27586350  0.62769800  1
  Si  1319  1  0.49938650  0.12762150  0.83099800  1
  Si  1360  1  0.70284450  0.83114500  0.33112850  1
  Si  1401  1  0.29567900  0.62756650  0.12755150  1
  Si  1442  1  0.49941850  0.33125650  0.62787000  1
