# generated using pymatgen
data_H11(C9N2)2
_symmetry_space_group_name_H-M   'P 1'
_cell_length_a   61.23820000
_cell_length_b   61.23810000
_cell_length_c   72.02120000
_cell_angle_alpha   90.00000000
_cell_angle_beta   90.00000000
_cell_angle_gamma   89.99600000
_symmetry_Int_Tables_number   1
_chemical_formula_structural   H11(C9N2)2
_chemical_formula_sum   'H1408 C2304 N512'
_cell_volume   270087.49480558
_cell_formula_units_Z   128
loop_
 _symmetry_equiv_pos_site_id
 _symmetry_equiv_pos_as_xyz
  1  'x, y, z'
loop_
 _atom_site_type_symbol
 _atom_site_label
 _atom_site_symmetry_multiplicity
 _atom_site_fract_x
 _atom_site_fract_y
 _atom_site_fract_z
 _atom_site_occupancy
  H  9  1  0.53087600  0.85706300  0.09299900  1
  H  17  1  0.65061000  0.92582200  0.04674800  1
  H  19  1  0.63860600  0.87113800  0.09278100  1
  H  20  1  0.60706200  0.85558000  0.10611600  1
  H  21  1  0.57573500  0.92272700  0.03085100  1
  H  22  1  0.54514600  0.90300200  0.04114200  1
  H  31  1  0.40946300  0.64055700  0.59303700  1
  H  39  1  0.28967300  0.57178800  0.54686100  1
  H  41  1  0.30171000  0.62652500  0.59284900  1
  H  42  1  0.33333333  0.64209400  0.60616500  1
  H  43  1  0.36454600  0.57483800  0.53094500  1
  H  44  1  0.39514500  0.59455600  0.54121900  1
  H  53  1  0.07664300  0.18934300  0.84482200  1
  H  61  1  0.14309500  0.06884000  0.79743600  1
  H  63  1  0.09036000  0.08154300  0.84495000  1
  H  64  1  0.07557000  0.11329800  0.85861000  1
  H  65  1  0.14040200  0.14372700  0.78162500  1
  H  66  1  0.12111200  0.17447900  0.79217700  1
  H  75  1  0.86375500  0.30825200  0.34477400  1
  H  83  1  0.79717900  0.42863600  0.29734700  1
  H  85  1  0.84993000  0.41603100  0.34486000  1
  H  86  1  0.86476200  0.38429900  0.35852900  1
  H  87  1  0.79998300  0.35377200  0.28154500  1
  H  88  1  0.81929400  0.32304000  0.29211600  1
  H  97  1  0.53040900  0.63993800  0.48345100  1
  H  105  1  0.65081200  0.57263200  0.52989600  1
  H  107  1  0.63828800  0.62672800  0.48348600  1
  H  108  1  0.60656400  0.64186300  0.47008100  1
  H  109  1  0.57608100  0.57572500  0.54624300  1
  H  110  1  0.54531600  0.59519200  0.53591000  1
  H  119  1  0.40992200  0.85745500  0.98341400  1
  H  127  1  0.28948900  0.92479500  0.02979700  1
  H  129  1  0.30202700  0.87065200  0.98342400  1
  H  130  1  0.33375800  0.85549700  0.97003500  1
  H  131  1  0.36421300  0.92170200  0.04617300  1
  H  132  1  0.39498000  0.90222900  0.03585800  1
  H  141  1  0.07703100  0.30772700  0.73156000  1
  H  149  1  0.14188600  0.42883200  0.77934700  1
  H  151  1  0.08981600  0.41567100  0.73141800  1
  H  152  1  0.07549500  0.38376000  0.71763600  1
  H  153  1  0.13934400  0.35402400  0.79541600  1
  H  154  1  0.12036500  0.32311000  0.78476600  1
  H  163  1  0.86339200  0.18974900  0.23160100  1
  H  171  1  0.79836600  0.06876800  0.27938200  1
  H  173  1  0.85047900  0.08182800  0.23148100  1
  H  174  1  0.86485600  0.11371600  0.21769900  1
  H  175  1  0.80102800  0.14354700  0.29546000  1
  H  176  1  0.82004400  0.17444000  0.28480500  1
  H  185  1  0.40981900  0.14458000  0.98236700  1
  H  193  1  0.29320900  0.07061100  0.02729500  1
  H  195  1  0.30297900  0.12496600  0.98113700  1
  H  196  1  0.33399000  0.14167200  0.96788700  1
  H  197  1  0.36608800  0.08197500  0.04739600  1
  H  198  1  0.39576400  0.10292100  0.03706600  1
  H  207  1  0.53045900  0.35282400  0.48231900  1
  H  215  1  0.64705800  0.42686500  0.52721600  1
  H  217  1  0.63730600  0.37249900  0.48106000  1
  H  218  1  0.60629600  0.35575500  0.46782500  1
  H  219  1  0.57420200  0.41542600  0.54735600  1
  H  220  1  0.54453200  0.39448200  0.53702400  1
  H  229  1  0.86242300  0.80937500  0.23327700  1
  H  237  1  0.79615600  0.92961100  0.28100800  1
  H  239  1  0.85424700  0.91749700  0.23795900  1
  H  240  1  0.86815100  0.88592500  0.22328300  1
  H  241  1  0.79508400  0.85379500  0.29421800  1
  H  242  1  0.81450000  0.82301700  0.28383500  1
  H  251  1  0.07785800  0.68815600  0.73329200  1
  H  259  1  0.14410500  0.56794300  0.78105600  1
  H  261  1  0.08600900  0.58004700  0.73801300  1
  H  262  1  0.07211100  0.61161400  0.72332700  1
  H  263  1  0.14521300  0.64376500  0.79422900  1
  H  264  1  0.12580600  0.67454600  0.78382800  1
  H  273  1  0.41015400  0.35313000  0.59439000  1
  H  281  1  0.29327200  0.42629000  0.54918300  1
  H  283  1  0.30321900  0.37238500  0.59565900  1
  H  284  1  0.33432000  0.35591100  0.60899000  1
  H  285  1  0.36593800  0.41441200  0.52870100  1
  H  286  1  0.39568900  0.39361400  0.53913300  1
  H  295  1  0.53011200  0.14445400  0.09443100  1
  H  303  1  0.64702600  0.07127200  0.04927600  1
  H  305  1  0.63706000  0.12518700  0.09575300  1
  H  306  1  0.60595200  0.14168400  0.10906400  1
  H  307  1  0.57439000  0.08321800  0.02873200  1
  H  308  1  0.54463500  0.10400100  0.03916000  1
  H  317  1  0.86200500  0.68856600  0.34347400  1
  H  325  1  0.79705000  0.56794800  0.29523000  1
  H  327  1  0.85431400  0.58033500  0.33898400  1
  H  328  1  0.86784900  0.61200600  0.35376400  1
  H  329  1  0.79629000  0.64364600  0.28155800  1
  H  330  1  0.81552200  0.67451600  0.29205900  1
  H  339  1  0.07820200  0.80900200  0.84346700  1
  H  347  1  0.14323500  0.92953200  0.79518800  1
  H  349  1  0.08594200  0.91721800  0.83893100  1
  H  350  1  0.07238500  0.88556300  0.85372500  1
  H  351  1  0.14394400  0.85384700  0.78154200  1
  H  352  1  0.12470400  0.82299000  0.79206300  1
  H  361  1  0.03210700  0.35519300  0.59191100  1
  H  369  1  0.15140300  0.42365800  0.54463600  1
  H  371  1  0.14019500  0.36382000  0.58604400  1
  H  372  1  0.10895300  0.34891200  0.60043200  1
  H  373  1  0.07535100  0.42482300  0.53219600  1
  H  374  1  0.04477200  0.40500700  0.54249600  1
  H  383  1  0.90816700  0.14237200  0.09194000  1
  H  391  1  0.78886900  0.07391900  0.04464100  1
  H  393  1  0.80008100  0.13377300  0.08604600  1
  H  394  1  0.83132100  0.14867900  0.10043900  1
  H  395  1  0.86492500  0.07273800  0.03222300  1
  H  396  1  0.89550400  0.09254600  0.04253200  1
  H  405  1  0.57252600  0.68722600  0.34282100  1
  H  413  1  0.64944200  0.57162600  0.29936800  1
  H  415  1  0.59245800  0.58038900  0.34341600  1
  H  416  1  0.57468000  0.61102500  0.35619700  1
  H  417  1  0.63848500  0.64477900  0.27953700  1
  H  418  1  0.61702600  0.67423600  0.28954300  1
  H  427  1  0.36772400  0.81035000  0.84279400  1
  H  435  1  0.29088700  0.92592200  0.79922200  1
  H  437  1  0.34786700  0.91719500  0.84327700  1
  H  438  1  0.36564100  0.88656900  0.85608300  1
  H  439  1  0.30182700  0.85275100  0.77944800  1
  H  440  1  0.32326200  0.82329100  0.78949300  1
  H  449  1  0.03157400  0.14195000  0.98457100  1
  H  457  1  0.15147300  0.07500200  0.03220500  1
  H  459  1  0.13980100  0.13408300  0.99014100  1
  H  460  1  0.10840400  0.14855100  0.97565700  1
  H  461  1  0.07557800  0.07396100  0.04520900  1
  H  462  1  0.04484700  0.09355400  0.03485300  1
  H  471  1  0.90869200  0.35557900  0.48452400  1
  H  479  1  0.78882800  0.42257500  0.53223800  1
  H  481  1  0.80046900  0.36352300  0.49011000  1
  H  482  1  0.83185500  0.34903600  0.47561800  1
  H  483  1  0.86474200  0.42351700  0.54524500  1
  H  484  1  0.89546000  0.40392900  0.53485000  1
  H  493  1  0.57288200  0.80988000  0.23363100  1
  H  501  1  0.64862800  0.92595500  0.27744100  1
  H  503  1  0.59217100  0.91686300  0.23298000  1
  H  504  1  0.57472400  0.88608700  0.22009200  1
  H  505  1  0.63733100  0.85300400  0.29767900  1
  H  506  1  0.61610000  0.82341600  0.28756000  1
  H  515  1  0.36738800  0.68760900  0.73366200  1
  H  523  1  0.29170100  0.57154300  0.77753200  1
  H  525  1  0.34818600  0.58061700  0.73309300  1
  H  526  1  0.36562900  0.61138700  0.72019400  1
  H  527  1  0.30294100  0.64451800  0.79771700  1
  H  528  1  0.32415700  0.67411100  0.78757800  1
  H  537  1  0.90874200  0.64704600  0.48319500  1
  H  545  1  0.79282400  0.57231500  0.52860400  1
  H  547  1  0.80124000  0.63191900  0.48691500  1
  H  548  1  0.83194300  0.64818300  0.47274800  1
  H  549  1  0.86742200  0.57966900  0.54582000  1
  H  550  1  0.89694400  0.60096000  0.53559000  1
  H  559  1  0.03157100  0.85044900  0.98318700  1
  H  567  1  0.14746900  0.92523400  0.02860300  1
  H  569  1  0.13907100  0.86558000  0.98694200  1
  H  570  1  0.10837300  0.84930100  0.97277000  1
  H  571  1  0.07285300  0.91788700  0.04578400  1
  H  572  1  0.04334000  0.89658600  0.03555200  1
  H  581  1  0.36589500  0.31136700  0.73479900  1
  H  589  1  0.29031700  0.42703000  0.77942200  1
  H  591  1  0.35127400  0.41894100  0.73905700  1
  H  592  1  0.36799400  0.38833600  0.72515200  1
  H  593  1  0.29793100  0.35253800  0.79700800  1
  H  594  1  0.31922000  0.32300100  0.78685400  1
  H  603  1  0.57441100  0.18613900  0.23482700  1
  H  611  1  0.64993600  0.07047500  0.27949300  1
  H  613  1  0.58898300  0.07856600  0.23912100  1
  H  614  1  0.57226700  0.10917100  0.22520600  1
  H  615  1  0.64232100  0.14496500  0.29707400  1
  H  616  1  0.62105800  0.17451100  0.28689400  1
  H  625  1  0.90905800  0.85068300  0.09356600  1
  H  633  1  0.79286300  0.92431900  0.04751100  1
  H  635  1  0.80144700  0.86540200  0.08983800  1
  H  636  1  0.83222900  0.84944300  0.10415300  1
  H  637  1  0.86731700  0.91658100  0.03002900  1
  H  638  1  0.89691200  0.89546900  0.04043100  1
  H  647  1  0.03125100  0.64692000  0.59358100  1
  H  655  1  0.14741700  0.57323200  0.54751300  1
  H  657  1  0.13885500  0.63215500  0.58985100  1
  H  658  1  0.10807900  0.64813400  0.60416900  1
  H  659  1  0.07297000  0.58102300  0.53002900  1
  H  660  1  0.04338600  0.60214300  0.54043700  1
  H  669  1  0.36564900  0.18659900  0.84188800  1
  H  677  1  0.29115100  0.07057400  0.79683300  1
  H  679  1  0.35140400  0.07890800  0.83787100  1
  H  680  1  0.36783500  0.10962400  0.85187300  1
  H  681  1  0.29929500  0.14482900  0.77874600  1
  H  682  1  0.32042700  0.17445300  0.78901200  1
  H  691  1  0.57467400  0.31095400  0.34184800  1
  H  699  1  0.64910600  0.42700000  0.29678600  1
  H  701  1  0.58884100  0.41864700  0.33781500  1
  H  702  1  0.57242200  0.38792700  0.35181500  1
  H  703  1  0.64097100  0.35275100  0.27868200  1
  H  704  1  0.61986900  0.32311400  0.28896500  1
  H  711  1  0.58038600  0.05184600  0.05385900  1
  H  718  1  0.62231400  0.94133700  0.01044900  1
  H  719  1  0.60465300  0.95304100  0.06610000  1
  H  720  1  0.63756100  0.05223600  0.02135000  1
  H  722  1  0.61420000  0.99661800  0.99564800  1
  H  723  1  0.62173900  0.97174600  0.98922400  1
  H  725  1  0.55842200  0.02014200  0.05410700  1
  H  726  1  0.56606000  0.99719400  0.04386200  1
  H  733  1  0.35988300  0.44574400  0.55390900  1
  H  740  1  0.31818200  0.55631100  0.51050000  1
  H  741  1  0.33543900  0.54450500  0.56622900  1
  H  742  1  0.30282400  0.44534000  0.52125200  1
  H  744  1  0.32645100  0.50106200  0.49567500  1
  H  745  1  0.31900600  0.52595700  0.48922700  1
  H  747  1  0.38180700  0.47749100  0.55426200  1
  H  748  1  0.37417000  0.50044800  0.54402900  1
  H  755  1  0.27042200  0.13628600  0.80544300  1
  H  762  1  0.15868600  0.09960400  0.76095800  1
  H  763  1  0.17100200  0.11198300  0.81754100  1
  H  764  1  0.26973300  0.08147400  0.77013000  1
  H  766  1  0.21416000  0.10739100  0.74654400  1
  H  767  1  0.18905600  0.10122500  0.73972700  1
  H  769  1  0.23873100  0.15809000  0.80765900  1
  H  770  1  0.21548900  0.15128900  0.79747900  1
  H  777  1  0.66985800  0.36132400  0.30536700  1
  H  784  1  0.78156400  0.39820500  0.26089000  1
  H  785  1  0.76936300  0.38531000  0.31740500  1
  H  786  1  0.67051400  0.41614100  0.27006000  1
  H  788  1  0.72607800  0.39051600  0.24649400  1
  H  789  1  0.75116200  0.39678300  0.23969400  1
  H  791  1  0.70146200  0.33941200  0.30736500  1
  H  792  1  0.72470400  0.34623500  0.29718900  1
  H  799  1  0.58074700  0.44656000  0.52196000  1
  H  806  1  0.62135400  0.55691300  0.56644200  1
  H  807  1  0.60604600  0.54535600  0.51026100  1
  H  808  1  0.63729100  0.44589300  0.55525100  1
  H  810  1  0.61299500  0.50148900  0.58079400  1
  H  811  1  0.62010900  0.52637400  0.58753700  1
  H  813  1  0.55903000  0.47844400  0.52128000  1
  H  814  1  0.56657200  0.50135200  0.53164100  1
  H  821  1  0.35950700  0.05087900  0.02193800  1
  H  828  1  0.31901400  0.94048200  0.06637900  1
  H  829  1  0.33420400  0.95210100  0.01018500  1
  H  830  1  0.30303700  0.05154900  0.05531900  1
  H  832  1  0.32747600  0.99587400  0.08076500  1
  H  833  1  0.32041500  0.97097400  0.08750900  1
  H  835  1  0.38125300  0.01899500  0.02127000  1
  H  836  1  0.37369300  0.99609300  0.03163800  1
  H  843  1  0.26938400  0.36176000  0.77011800  1
  H  850  1  0.15789600  0.39688300  0.81585800  1
  H  851  1  0.16984900  0.38690500  0.75887500  1
  H  852  1  0.26897900  0.41576600  0.80632000  1
  H  854  1  0.21355400  0.38889900  0.82970600  1
  H  855  1  0.18846700  0.39460800  0.83685600  1
  H  857  1  0.23753900  0.34022500  0.76748100  1
  H  858  1  0.21435300  0.34686600  0.77783100  1
  H  865  1  0.67088700  0.13571800  0.27020700  1
  H  872  1  0.78236300  0.10037200  0.31590000  1
  H  873  1  0.77049300  0.11089300  0.25897500  1
  H  874  1  0.67127200  0.08170400  0.30639900  1
  H  876  1  0.72670300  0.10826500  0.32975600  1
  H  877  1  0.75177400  0.10244700  0.33688200  1
  H  879  1  0.70264300  0.15737000  0.26778000  1
  H  880  1  0.72583300  0.15070400  0.27811800  1
  H  887  1  0.66803000  0.85988900  0.27196900  1
  H  894  1  0.77872100  0.89981300  0.31617900  1
  H  895  1  0.76696100  0.88567000  0.25981100  1
  H  896  1  0.66753400  0.91611200  0.30564900  1
  H  898  1  0.72328200  0.89169400  0.33052000  1
  H  899  1  0.74822600  0.89855400  0.33728600  1
  H  901  1  0.70006400  0.83839000  0.27077900  1
  H  902  1  0.72308600  0.84599800  0.28092600  1
  H  909  1  0.27227100  0.63751500  0.77192400  1
  H  916  1  0.16155400  0.59791000  0.81624400  1
  H  917  1  0.17329300  0.61166000  0.75980300  1
  H  918  1  0.27278500  0.58143900  0.80577500  1
  H  920  1  0.21700100  0.60610000  0.83051700  1
  H  921  1  0.19204500  0.59936100  0.83733800  1
  H  923  1  0.24022700  0.65899600  0.77068300  1
  H  924  1  0.21719400  0.65139700  0.78081900  1
  H  931  1  0.66898300  0.63742400  0.30543200  1
  H  938  1  0.77940500  0.59880400  0.25996000  1
  H  939  1  0.76806900  0.61095300  0.31672800  1
  H  940  1  0.66828400  0.58179300  0.27105500  1
  H  942  1  0.72379100  0.60715400  0.24618600  1
  H  943  1  0.74870900  0.60067300  0.23908100  1
  H  945  1  0.70114100  0.65875400  0.30693800  1
  H  946  1  0.72410000  0.65129700  0.29660600  1
  H  953  1  0.27132200  0.86017500  0.80534600  1
  H  960  1  0.16088300  0.89890100  0.75992800  1
  H  961  1  0.17217300  0.88641300  0.81664800  1
  H  962  1  0.27202700  0.91575300  0.77090800  1
  H  964  1  0.21649300  0.89061100  0.74614000  1
  H  965  1  0.19158700  0.89716800  0.73906000  1
  H  967  1  0.23924700  0.83875000  0.80669300  1
  H  968  1  0.21627500  0.84622600  0.79638600  1
  H  975  1  0.08239400  0.55160100  0.55653100  1
  H  982  1  0.11841600  0.44128200  0.50960100  1
  H  983  1  0.11032400  0.45232300  0.56693500  1
  H  984  1  0.13629000  0.55262000  0.52020400  1
  H  986  1  0.10961600  0.49705800  0.49651800  1
  H  987  1  0.11535200  0.47213000  0.48898500  1
  H  989  1  0.06164900  0.51920000  0.55913800  1
  H  990  1  0.06884000  0.49621700  0.54871800  1
  H  997  1  0.85785800  0.94597200  0.05657800  1
  H  1004  1  0.82198500  0.05629100  0.00961300  1
  H  1005  1  0.82983500  0.04522800  0.06696800  1
  H  1006  1  0.80403600  0.94492300  0.02017400  1
  H  1008  1  0.83089300  0.00052700  0.99655000  1
  H  1009  1  0.82522200  0.02546200  0.98899800  1
  H  1011  1  0.87857600  0.97839800  0.05922600  1
  H  1012  1  0.87138400  0.00137700  0.04880000  1
  H  1019  1  0.08275300  0.94706800  0.01918100  1
  H  1026  1  0.11764000  0.05700300  0.06728600  1
  H  1027  1  0.11126200  0.04644000  0.00972900  1
  H  1028  1  0.13609100  0.94571000  0.05608800  1
  H  1030  1  0.10870900  0.00106300  0.07980700  1
  H  1031  1  0.11409800  0.02594400  0.08763000  1
  H  1033  1  0.06220600  0.97960700  0.01638400  1
  H  1034  1  0.06928100  0.00249900  0.02700900  1
  H  1041  1  0.85754600  0.55048100  0.51921900  1
  H  1048  1  0.82239000  0.44055300  0.56727300  1
  H  1049  1  0.82933800  0.45102800  0.50975600  1
  H  1050  1  0.80417900  0.55182200  0.55609800  1
  H  1052  1  0.83129800  0.49648500  0.57981100  1
  H  1053  1  0.82577000  0.47162500  0.58761000  1
  H  1055  1  0.87823800  0.51803400  0.51663000  1
  H  1056  1  0.87114400  0.49513500  0.52723700  1
  H  1063  1  0.43435100  0.89252700  0.99411900  1
  H  1070  1  0.50568100  0.89101800  0.08321600  1
  H  1071  1  0.53005400  0.85924900  0.03577400  1
  H  1072  1  0.41066600  0.85771100  0.04024500  1
  H  1074  1  0.45190700  0.89863300  0.06546700  1
  H  1075  1  0.46840200  0.90229900  0.08341200  1
  H  1077  1  0.47128700  0.90490800  0.99453700  1
  H  1078  1  0.48782300  0.90069900  0.01236700  1
  H  1085  1  0.50594700  0.60492200  0.49416700  1
  H  1092  1  0.43464000  0.60656700  0.58328400  1
  H  1093  1  0.41026500  0.63827000  0.53581000  1
  H  1094  1  0.52967200  0.63972100  0.54028800  1
  H  1096  1  0.48836800  0.59881000  0.56549100  1
  H  1097  1  0.47188300  0.59518400  0.58344800  1
  H  1099  1  0.46900700  0.59254900  0.49460300  1
  H  1100  1  0.45248300  0.59677600  0.51243800  1
  H  1107  1  0.11112100  0.28303400  0.74340800  1
  H  1114  1  0.10993200  0.21465700  0.83373100  1
  H  1115  1  0.07699000  0.18885800  0.78741100  1
  H  1116  1  0.07571800  0.30819800  0.78865800  1
  H  1118  1  0.11704700  0.26788000  0.81464600  1
  H  1119  1  0.12115100  0.25196500  0.83290200  1
  H  1121  1  0.12323300  0.24601400  0.74470700  1
  H  1122  1  0.11870100  0.23004700  0.76285700  1
  H  1129  1  0.82932400  0.21446300  0.24341600  1
  H  1136  1  0.83047800  0.28292000  0.33370500  1
  H  1137  1  0.86341800  0.30867500  0.28736600  1
  H  1138  1  0.86468600  0.18933600  0.28870100  1
  H  1140  1  0.82336200  0.22968000  0.31465300  1
  H  1141  1  0.81926100  0.24560900  0.33290100  1
  H  1143  1  0.81714000  0.25145700  0.24472300  1
  H  1144  1  0.82165400  0.26743200  0.26287100  1
  H  1151  1  0.50537500  0.11009000  0.08216100  1
  H  1158  1  0.43519500  0.11106100  0.99391700  1
  H  1159  1  0.41037600  0.14630900  0.03939800  1
  H  1160  1  0.52942100  0.14768700  0.03775400  1
  H  1162  1  0.48887400  0.10499100  0.01238700  1
  H  1163  1  0.47256200  0.09989100  0.99456200  1
  H  1165  1  0.46831000  0.09798200  0.08108500  1
  H  1166  1  0.45190500  0.10341000  0.06339100  1
  H  1173  1  0.43493900  0.38742200  0.58212600  1
  H  1180  1  0.50509800  0.38639000  0.49386900  1
  H  1181  1  0.52989400  0.35112000  0.53934500  1
  H  1182  1  0.41083600  0.34989200  0.53770300  1
  H  1184  1  0.45145300  0.39257500  0.51237800  1
  H  1185  1  0.46776200  0.39765200  0.49454500  1
  H  1187  1  0.47202200  0.39947100  0.58105800  1
  H  1188  1  0.48841700  0.39403400  0.56335900  1
  H  1195  1  0.82660500  0.71333800  0.33277400  1
  H  1202  1  0.82884200  0.78366800  0.24272300  1
  H  1203  1  0.85893500  0.80869800  0.29072600  1
  H  1204  1  0.86138700  0.68947100  0.28667100  1
  H  1206  1  0.82080100  0.73008900  0.26078600  1
  H  1207  1  0.81773100  0.74632300  0.24259100  1
  H  1209  1  0.81381100  0.75015900  0.33205000  1
  H  1210  1  0.81769000  0.76647300  0.31402200  1
  H  1217  1  0.11359500  0.78421300  0.83279200  1
  H  1224  1  0.11140500  0.71388700  0.74272700  1
  H  1225  1  0.08135700  0.68883500  0.79074200  1
  H  1226  1  0.07883600  0.80806000  0.78666800  1
  H  1228  1  0.11942800  0.76746600  0.76079300  1
  H  1229  1  0.12249000  0.75124100  0.74259300  1
  H  1231  1  0.12649700  0.74743500  0.83203300  1
  H  1232  1  0.12264200  0.73112400  0.81399500  1
  H  1239  1  0.93381100  0.39153700  0.49413800  1
  H  1246  1  0.00595300  0.38905100  0.58363700  1
  H  1247  1  0.03033200  0.36062700  0.53470400  1
  H  1248  1  0.91061400  0.35791400  0.54105900  1
  H  1250  1  0.95201400  0.39724300  0.56651900  1
  H  1251  1  0.96860200  0.39988500  0.58451600  1
  H  1253  1  0.97061300  0.40421900  0.49418400  1
  H  1254  1  0.98727900  0.40067400  0.51201900  1
  H  1261  1  0.00646300  0.10601500  0.99417100  1
  H  1268  1  0.93432500  0.10850900  0.08368000  1
  H  1269  1  0.90994800  0.13690400  0.03473400  1
  H  1270  1  0.02968500  0.13956200  0.04112000  1
  H  1272  1  0.98821900  0.10019300  0.06652000  1
  H  1273  1  0.97163700  0.09756700  0.08452400  1
  H  1275  1  0.96965300  0.09335500  0.99420700  1
  H  1276  1  0.95299100  0.09688700  0.01204400  1
  H  1283  1  0.60793400  0.78471900  0.24458900  1
  H  1290  1  0.60672900  0.71302800  0.33268400  1
  H  1291  1  0.57340300  0.68876600  0.28598400  1
  H  1292  1  0.57203000  0.80831900  0.29014100  1
  H  1294  1  0.61326600  0.76700200  0.31506300  1
  H  1295  1  0.61772700  0.75039300  0.33280200  1
  H  1297  1  0.61987100  0.74763500  0.24495600  1
  H  1298  1  0.61498200  0.73096100  0.26256900  1
  H  1305  1  0.33238500  0.71278600  0.74459100  1
  H  1312  1  0.33355900  0.78454200  0.83266700  1
  H  1313  1  0.36687500  0.80875600  0.78594400  1
  H  1314  1  0.36822100  0.68920300  0.79018700  1
  H  1316  1  0.32700600  0.73055300  0.81508100  1
  H  1317  1  0.32255600  0.74717700  0.83281200  1
  H  1319  1  0.32038800  0.74984700  0.74496400  1
  H  1320  1  0.32524900  0.76652100  0.76258200  1
  H  1327  1  0.00549300  0.61176500  0.58251700  1
  H  1334  1  0.93523800  0.61322900  0.49332700  1
  H  1335  1  0.91016500  0.64565000  0.54020600  1
  H  1336  1  0.02953100  0.64760200  0.53707000  1
  H  1338  1  0.98893300  0.60644700  0.51155600  1
  H  1339  1  0.97266700  0.60231600  0.49353100  1
  H  1341  1  0.96847100  0.59954700  0.58173600  1
  H  1342  1  0.95209000  0.60418800  0.56387400  1
  H  1349  1  0.93482400  0.88580000  0.08250200  1
  H  1356  1  0.00506000  0.88427900  0.99329200  1
  H  1357  1  0.03013400  0.85190300  0.04019500  1
  H  1358  1  0.91075100  0.85000400  0.03704400  1
  H  1360  1  0.95140100  0.89117100  0.01155800  1
  H  1361  1  0.96766100  0.89527200  0.99352300  1
  H  1363  1  0.97184400  0.89801900  0.08170700  1
  H  1364  1  0.98821200  0.89338100  0.06383800  1
  H  1371  1  0.32988700  0.21196700  0.83170100  1
  H  1378  1  0.33168800  0.28514700  0.74386200  1
  H  1379  1  0.36322200  0.30872500  0.79170700  1
  H  1380  1  0.36539100  0.18939800  0.78554400  1
  H  1382  1  0.32448600  0.23093100  0.76077200  1
  H  1383  1  0.32071400  0.24777200  0.74307700  1
  H  1385  1  0.31744000  0.24890400  0.83175800  1
  H  1386  1  0.32185300  0.26583600  0.81423400  1
  H  1393  1  0.61038800  0.28559300  0.33168900  1
  H  1400  1  0.60861200  0.21234700  0.24387100  1
  H  1401  1  0.57708100  0.18881700  0.29173400  1
  H  1402  1  0.57495100  0.30814200  0.28548800  1
  H  1404  1  0.61583600  0.26657300  0.26075000  1
  H  1405  1  0.61959700  0.24971700  0.24306300  1
  H  1407  1  0.62290200  0.24868200  0.33173400  1
  H  1408  1  0.61851200  0.23174600  0.31420600  1
  H  1415  1  0.57009600  0.89005300  0.12183500  1
  H  1422  1  0.53996000  0.83522000  0.21324900  1
  H  1423  1  0.60565900  0.85159100  0.20293400  1
  H  1424  1  0.55775100  0.82292500  0.11488200  1
  H  1426  1  0.52375000  0.83766600  0.16546400  1
  H  1427  1  0.51556300  0.83279000  0.18702900  1
  H  1429  1  0.57197400  0.90456600  0.15242800  1
  H  1430  1  0.56865800  0.88929100  0.17118500  1
  H  1437  1  0.37051700  0.60750200  0.62182000  1
  H  1444  1  0.40026300  0.66258800  0.71326400  1
  H  1445  1  0.33470400  0.64562300  0.70298900  1
  H  1446  1  0.38230500  0.67473900  0.61494400  1
  H  1448  1  0.41646500  0.66024200  0.66547800  1
  H  1449  1  0.42460900  0.66525200  0.68703100  1
  H  1451  1  0.36878100  0.59292000  0.65239700  1
  H  1452  1  0.37198800  0.60818800  0.67117200  1
  H  1459  1  0.11121400  0.15328300  0.87286500  1
  H  1466  1  0.05200900  0.17621900  0.96557300  1
  H  1467  1  0.08051900  0.11485500  0.95507600  1
  H  1468  1  0.04298700  0.15940200  0.86805100  1
  H  1470  1  0.05358000  0.19379200  0.91814200  1
  H  1471  1  0.04629100  0.20036300  0.93960700  1
  H  1473  1  0.12719900  0.15324100  0.90295600  1
  H  1474  1  0.11255500  0.15549300  0.92218000  1
  H  1481  1  0.82916500  0.34432000  0.37278500  1
  H  1488  1  0.88829300  0.32134800  0.46553000  1
  H  1489  1  0.85972100  0.38268100  0.45502600  1
  H  1490  1  0.89739000  0.33813800  0.36801000  1
  H  1492  1  0.88678700  0.30378600  0.41809700  1
  H  1493  1  0.89405500  0.29721300  0.43956500  1
  H  1495  1  0.81315400  0.34421400  0.40285800  1
  H  1496  1  0.82778700  0.34194600  0.42208800  1
  H  1503  1  0.57035100  0.60714500  0.45465700  1
  H  1510  1  0.53944400  0.66103200  0.36290900  1
  H  1511  1  0.60541100  0.64615500  0.37363500  1
  H  1512  1  0.55639700  0.67400200  0.46130900  1
  H  1514  1  0.52287600  0.65812800  0.41059300  1
  H  1515  1  0.51476000  0.66283800  0.38898100  1
  H  1517  1  0.57264700  0.59251200  0.42411800  1
  H  1518  1  0.56899400  0.60760400  0.40529800  1
  H  1525  1  0.37022900  0.89033600  0.95468600  1
  H  1532  1  0.40074800  0.83615900  0.86289200  1
  H  1533  1  0.33493600  0.85176100  0.87357300  1
  H  1534  1  0.38367500  0.82336200  0.96123400  1
  H  1536  1  0.41731800  0.83894800  0.91057700  1
  H  1537  1  0.42538300  0.83408000  0.88897700  1
  H  1539  1  0.36811500  0.90506700  0.92417200  1
  H  1540  1  0.37167100  0.88998900  0.90532900  1
  H  1547  1  0.11152900  0.34439500  0.70368700  1
  H  1554  1  0.05294300  0.32086500  0.61061600  1
  H  1555  1  0.08085100  0.38242700  0.62142300  1
  H  1556  1  0.04339400  0.33696500  0.70806800  1
  H  1558  1  0.05479800  0.30294100  0.65794800  1
  H  1559  1  0.04753700  0.29645900  0.63645700  1
  H  1561  1  0.12777400  0.34472200  0.67369600  1
  H  1562  1  0.11334400  0.34216700  0.65438200  1
  H  1569  1  0.82887300  0.15308800  0.20376000  1
  H  1576  1  0.88739300  0.17667900  0.11065400  1
  H  1577  1  0.85937900  0.11516200  0.12144900  1
  H  1578  1  0.89700600  0.16056900  0.20809600  1
  H  1580  1  0.88561200  0.19457600  0.15799400  1
  H  1581  1  0.89286200  0.20106000  0.13650000  1
  H  1583  1  0.81259400  0.15293400  0.17378900  1
  H  1584  1  0.82701000  0.15551600  0.15446900  1
  H  1591  1  0.37433900  0.10823400  0.95431100  1
  H  1598  1  0.39839300  0.16557100  0.86132100  1
  H  1599  1  0.33616200  0.13896400  0.87173100  1
  H  1600  1  0.38014900  0.17652800  0.95871900  1
  H  1602  1  0.41536300  0.16460000  0.90891500  1
  H  1603  1  0.42238500  0.17122400  0.88739500  1
  H  1605  1  0.37445000  0.09199900  0.92429600  1
  H  1606  1  0.37668100  0.10651100  0.90499400  1
  H  1613  1  0.56574300  0.38921100  0.45430700  1
  H  1620  1  0.54195400  0.33181000  0.36129500  1
  H  1621  1  0.60406400  0.35870900  0.37168500  1
  H  1622  1  0.56033000  0.32088100  0.45866600  1
  H  1624  1  0.52500000  0.33270800  0.40889200  1
  H  1625  1  0.51800600  0.32603800  0.38737600  1
  H  1627  1  0.56548700  0.40547700  0.42430000  1
  H  1628  1  0.56333600  0.39096300  0.40499200  1
  H  1635  1  0.83020200  0.85170000  0.20607000  1
  H  1642  1  0.88466200  0.81784400  0.11397400  1
  H  1643  1  0.86487600  0.88289800  0.12272100  1
  H  1644  1  0.89646100  0.83446500  0.21112100  1
  H  1646  1  0.88175900  0.80263800  0.16191900  1
  H  1647  1  0.88764000  0.79428600  0.14060100  1
  H  1649  1  0.81454500  0.85431300  0.17604700  1
  H  1650  1  0.82861500  0.84960900  0.15685000  1
  H  1657  1  0.11003400  0.64581000  0.70609200  1
  H  1664  1  0.05565700  0.67975200  0.61398600  1
  H  1665  1  0.07541800  0.61469200  0.62274900  1
  H  1666  1  0.04380200  0.66315200  0.71114900  1
  H  1668  1  0.05851300  0.69495700  0.66193300  1
  H  1669  1  0.05267200  0.70331300  0.64060900  1
  H  1671  1  0.12571000  0.64334000  0.67607600  1
  H  1672  1  0.11164200  0.64808300  0.65688300  1
  H  1679  1  0.37410400  0.38952000  0.62228100  1
  H  1686  1  0.39872500  0.33269600  0.71560000  1
  H  1687  1  0.33636800  0.35887200  0.70492900  1
  H  1688  1  0.38116500  0.32130900  0.61827500  1
  H  1690  1  0.41601100  0.33392700  0.66808900  1
  H  1691  1  0.42293700  0.32729700  0.68963000  1
  H  1693  1  0.37395700  0.40599800  0.65220000  1
  H  1694  1  0.37649300  0.39168700  0.67158300  1
  H  1701  1  0.56596200  0.10804800  0.12229800  1
  H  1708  1  0.54159600  0.16494700  0.21562100  1
  H  1709  1  0.60386000  0.13853900  0.20496600  1
  H  1710  1  0.55929600  0.17629800  0.11831500  1
  H  1712  1  0.52431800  0.16375800  0.16811000  1
  H  1713  1  0.51741400  0.17042700  0.18964700  1
  H  1715  1  0.56601900  0.09155300  0.15221400  1
  H  1716  1  0.56356800  0.10586900  0.17160200  1
  H  1723  1  0.82997000  0.64575200  0.37065100  1
  H  1730  1  0.88382000  0.68002400  0.46297800  1
  H  1731  1  0.86500000  0.61474700  0.45389700  1
  H  1732  1  0.89596500  0.66403700  0.36578400  1
  H  1734  1  0.88059900  0.69553300  0.41511000  1
  H  1735  1  0.88638800  0.70382100  0.43646500  1
  H  1737  1  0.81426300  0.64284100  0.40064300  1
  H  1738  1  0.82819900  0.64774300  0.41987700  1
  H  1745  1  0.11023300  0.85179600  0.87062100  1
  H  1752  1  0.05644800  0.81748800  0.96297300  1
  H  1753  1  0.07535900  0.88273900  0.95388700  1
  H  1754  1  0.04424300  0.83349100  0.86577800  1
  H  1756  1  0.05959400  0.80198600  0.91509900  1
  H  1757  1  0.05383000  0.79369800  0.93645900  1
  H  1759  1  0.12598800  0.85453300  0.90060000  1
  H  1760  1  0.11206000  0.84960300  0.91983400  1
  H  1767  1  0.77194600  0.88354000  0.03767300  1
  H  1774  1  0.66831800  0.92826300  0.07957500  1
  H  1775  1  0.66613300  0.86360400  0.06014100  1
  H  1776  1  0.77673100  0.90040800  0.09406300  1
  H  1778  1  0.72598100  0.93175500  0.08225800  1
  H  1779  1  0.70255600  0.94448600  0.08570100  1
  H  1781  1  0.73722100  0.88026700  0.02398800  1
  H  1782  1  0.71428400  0.88427900  0.03551600  1
  H  1789  1  0.16834200  0.61397500  0.53770000  1
  H  1796  1  0.27198800  0.56935300  0.57976000  1
  H  1797  1  0.27415700  0.63394000  0.56015900  1
  H  1798  1  0.16355100  0.59715500  0.59409700  1
  H  1800  1  0.21433500  0.56579600  0.58229700  1
  H  1801  1  0.23776300  0.55311100  0.58584200  1
  H  1803  1  0.20307000  0.61720400  0.52400800  1
  H  1804  1  0.22600200  0.61317200  0.53554200  1
  H  1811  1  0.10191300  0.94889900  0.78727000  1
  H  1818  1  0.14659100  0.05145400  0.83038300  1
  H  1819  1  0.08149100  0.05391400  0.81210400  1
  H  1820  1  0.12027900  0.94279700  0.84323900  1
  H  1822  1  0.15039900  0.99380300  0.83189300  1
  H  1823  1  0.16307600  0.01718800  0.83561100  1
  H  1825  1  0.09758500  0.98394900  0.77442100  1
  H  1826  1  0.10145100  0.00660600  0.78637300  1
  H  1833  1  0.83840700  0.54862200  0.28731800  1
  H  1840  1  0.79363200  0.44602200  0.33027900  1
  H  1841  1  0.85875900  0.44364400  0.31201000  1
  H  1842  1  0.81996800  0.55469800  0.34326600  1
  H  1844  1  0.78983400  0.50368000  0.33192100  1
  H  1845  1  0.77714500  0.48028700  0.33557500  1
  H  1847  1  0.84259500  0.51358700  0.27443900  1
  H  1848  1  0.83864000  0.49092900  0.28637300  1
  H  1855  1  0.77183000  0.61274400  0.53885100  1
  H  1862  1  0.66783500  0.56994300  0.49647100  1
  H  1863  1  0.66639600  0.63437000  0.51649700  1
  H  1864  1  0.77663400  0.59712600  0.48219800  1
  H  1866  1  0.72545900  0.56593000  0.49349400  1
  H  1867  1  0.70189300  0.55347500  0.49000400  1
  H  1869  1  0.73708200  0.61594400  0.55252500  1
  H  1870  1  0.71414900  0.61242100  0.54087300  1
  H  1877  1  0.16846300  0.88483900  0.03885000  1
  H  1884  1  0.27248500  0.92748000  0.99629100  1
  H  1885  1  0.27389400  0.86313600  0.01650800  1
  H  1886  1  0.16365700  0.90036400  0.98218100  1
  H  1888  1  0.21486900  0.93157000  0.99345600  1
  H  1889  1  0.23844200  0.94396800  0.98985800  1
  H  1891  1  0.20321600  0.88168500  0.05253100  1
  H  1892  1  0.22614400  0.88521200  0.04087000  1
  H  1899  1  0.10314900  0.54849400  0.78946600  1
  H  1906  1  0.14567000  0.44550900  0.74572900  1
  H  1907  1  0.08085200  0.44387900  0.76477200  1
  H  1908  1  0.12013700  0.55457600  0.73317900  1
  H  1910  1  0.15010000  0.50312000  0.74398900  1
  H  1911  1  0.16244700  0.47957800  0.74016000  1
  H  1913  1  0.09889800  0.51343100  0.80233600  1
  H  1914  1  0.10222800  0.49077800  0.79025800  1
  H  1921  1  0.83710000  0.94906600  0.28942100  1
  H  1928  1  0.79455800  0.05209900  0.24577100  1
  H  1929  1  0.85937900  0.05362300  0.26486500  1
  H  1930  1  0.82010700  0.94299300  0.23313900  1
  H  1932  1  0.79011900  0.99448300  0.24390500  1
  H  1933  1  0.77777400  0.01803700  0.24012300  1
  H  1935  1  0.84118800  0.98412200  0.30231400  1
  H  1936  1  0.83778600  0.00677100  0.29024300  1
  H  1943  1  0.17172400  0.11614500  0.04047900  1
  H  1950  1  0.27287200  0.06853900  0.99680600  1
  H  1951  1  0.27699000  0.13390800  0.01420200  1
  H  1952  1  0.16456800  0.09794200  0.98458400  1
  H  1954  1  0.21505600  0.06607700  0.99603100  1
  H  1955  1  0.23807600  0.05273100  0.99228500  1
  H  1957  1  0.20703800  0.11959500  0.05305700  1
  H  1958  1  0.22945700  0.11502400  0.04094500  1
  H  1965  1  0.76857900  0.38144400  0.54044700  1
  H  1972  1  0.66739000  0.42898100  0.49668600  1
  H  1973  1  0.66331000  0.36363800  0.51415700  1
  H  1974  1  0.77572200  0.39966700  0.48455900  1
  H  1976  1  0.72519400  0.43152500  0.49606000  1
  H  1977  1  0.70216800  0.44482900  0.49223300  1
  H  1979  1  0.73326100  0.37796400  0.55302800  1
  H  1980  1  0.71084000  0.38255300  0.54092400  1
  H  1987  1  0.17184800  0.38286200  0.53591600  1
  H  1994  1  0.27337100  0.42862400  0.58009000  1
  H  1995  1  0.27683300  0.36339800  0.56224200  1
  H  1996  1  0.16472000  0.39983900  0.59209700  1
  H  1998  1  0.21557400  0.43162700  0.58098600  1
  H  1999  1  0.23872500  0.44470800  0.58483900  1
  H  2001  1  0.20719700  0.37942500  0.52334000  1
  H  2002  1  0.22961800  0.38350300  0.53558400  1
  H  2009  1  0.76837300  0.11463700  0.03595500  1
  H  2016  1  0.66690700  0.06890300  0.08023200  1
  H  2017  1  0.66348100  0.13409000  0.06227600  1
  H  2018  1  0.77559900  0.09774200  0.09214700  1
  H  2020  1  0.72470800  0.06589600  0.08115000  1
  H  2021  1  0.70155400  0.05282100  0.08501000  1
  H  2023  1  0.73300800  0.11790200  0.02339900  1
  H  2024  1  0.71061700  0.11377900  0.03567000  1
  H  2031  1  0.60884700  0.44860700  0.28650300  1
  H  2038  1  0.65086600  0.55229600  0.33086800  1
  H  2039  1  0.58670400  0.55357300  0.31026900  1
  H  2040  1  0.62409700  0.44287600  0.34315600  1
  H  2042  1  0.65544200  0.49462400  0.33268600  1
  H  2043  1  0.66763000  0.51821000  0.33674300  1
  H  2045  1  0.60573900  0.48359200  0.27322500  1
  H  2046  1  0.60926200  0.50633100  0.28515400  1
  H  2053  1  0.33146600  0.04902100  0.78652100  1
  H  2060  1  0.28943200  0.94521200  0.83076200  1
  H  2061  1  0.35360100  0.94400100  0.81014200  1
  H  2062  1  0.31613500  0.05462600  0.84315900  1
  H  2064  1  0.28480000  0.00287500  0.83256300  1
  H  2065  1  0.27264000  0.97927900  0.83663700  1
  H  2067  1  0.33455400  0.01406400  0.77318400  1
  H  2068  1  0.33098600  0.99130300  0.78507400  1
  H  2075  1  0.60998200  0.04879100  0.29017000  1
  H  2082  1  0.65029600  0.94476700  0.24547700  1
  H  2083  1  0.58631000  0.94412200  0.26647000  1
  H  2084  1  0.62412200  0.05449200  0.23330500  1
  H  2086  1  0.65534900  0.00240000  0.24348300  1
  H  2087  1  0.66728400  0.97869600  0.23935300  1
  H  2089  1  0.60688900  0.01378000  0.30344800  1
  H  2090  1  0.60995700  0.99104100  0.29142400  1
  H  2097  1  0.33024800  0.44871200  0.79013800  1
  H  2104  1  0.29001600  0.55280500  0.74549600  1
  H  2105  1  0.35396000  0.55333000  0.76662000  1
  H  2106  1  0.31616500  0.44304300  0.73326500  1
  H  2108  1  0.28493900  0.49517300  0.74337300  1
  H  2109  1  0.27302300  0.51889300  0.73927300  1
  H  2111  1  0.33317400  0.48370800  0.80344700  1
  H  2112  1  0.33007000  0.50644900  0.79142700  1
  H  2121  1  0.48188700  0.85706300  0.74587900  1
  H  2129  1  0.60162100  0.92582200  0.69962800  1
  H  2131  1  0.58961700  0.87113800  0.74566100  1
  H  2132  1  0.55807300  0.85558000  0.75899600  1
  H  2133  1  0.52674600  0.92272700  0.68373100  1
  H  2134  1  0.49615700  0.90300200  0.69402200  1
  H  2143  1  0.36047400  0.64055700  0.24591700  1
  H  2151  1  0.24068400  0.57178800  0.19974100  1
  H  2153  1  0.25272100  0.62652500  0.24572900  1
  H  2154  1  0.28428000  0.64209400  0.25904500  1
  H  2155  1  0.31555700  0.57483800  0.18382500  1
  H  2156  1  0.34615600  0.59455600  0.19409900  1
  H  2165  1  0.02765400  0.18934300  0.49770200  1
  H  2173  1  0.09410600  0.06884000  0.45031600  1
  H  2175  1  0.04137100  0.08154300  0.49783000  1
  H  2176  1  0.02658100  0.11329800  0.51149000  1
  H  2177  1  0.09141300  0.14372700  0.43450500  1
  H  2178  1  0.07212300  0.17447900  0.44505700  1
  H  2187  1  0.81476600  0.30825200  0.99765399  1
  H  2195  1  0.74819000  0.42863600  0.95022700  1
  H  2197  1  0.80094100  0.41603100  0.99773999  1
  H  2198  1  0.81577300  0.38429900  0.01140900  1
  H  2199  1  0.75099400  0.35377200  0.93442500  1
  H  2200  1  0.77030500  0.32304000  0.94499600  1
  H  2209  1  0.48142000  0.63993800  0.13633100  1
  H  2217  1  0.60182300  0.57263200  0.18277600  1
  H  2219  1  0.58929900  0.62672800  0.13636600  1
  H  2220  1  0.55757500  0.64186300  0.12296100  1
  H  2221  1  0.52709200  0.57572500  0.19912300  1
  H  2222  1  0.49632700  0.59519200  0.18879000  1
  H  2231  1  0.36093300  0.85745500  0.63629400  1
  H  2239  1  0.24050000  0.92479500  0.68267700  1
  H  2241  1  0.25303800  0.87065200  0.63630400  1
  H  2242  1  0.28476900  0.85549700  0.62291500  1
  H  2243  1  0.31522400  0.92170200  0.69905300  1
  H  2244  1  0.34599100  0.90222900  0.68873800  1
  H  2253  1  0.02804200  0.30772700  0.38444000  1
  H  2261  1  0.09289700  0.42883200  0.43222700  1
  H  2263  1  0.04082700  0.41567100  0.38429800  1
  H  2264  1  0.02650600  0.38376000  0.37051600  1
  H  2265  1  0.09035500  0.35402400  0.44829600  1
  H  2266  1  0.07137600  0.32311000  0.43764600  1
  H  2275  1  0.81440300  0.18974900  0.88448100  1
  H  2283  1  0.74937700  0.06876800  0.93226200  1
  H  2285  1  0.80149000  0.08182800  0.88436100  1
  H  2286  1  0.81586700  0.11371600  0.87057900  1
  H  2287  1  0.75203900  0.14354700  0.94834000  1
  H  2288  1  0.77105500  0.17444000  0.93768500  1
  H  2297  1  0.36083000  0.14458000  0.63524700  1
  H  2305  1  0.24422000  0.07061100  0.68017500  1
  H  2307  1  0.25399000  0.12496600  0.63401700  1
  H  2308  1  0.28500100  0.14167200  0.62076700  1
  H  2309  1  0.31709900  0.08197500  0.70027600  1
  H  2310  1  0.34677500  0.10292100  0.68994600  1
  H  2319  1  0.48147000  0.35282400  0.13519900  1
  H  2327  1  0.59806900  0.42686500  0.18009600  1
  H  2329  1  0.58831700  0.37249900  0.13394000  1
  H  2330  1  0.55730700  0.35575500  0.12070500  1
  H  2331  1  0.52521300  0.41542600  0.20023600  1
  H  2332  1  0.49554300  0.39448200  0.18990400  1
  H  2341  1  0.81343400  0.80937500  0.88615700  1
  H  2349  1  0.74716700  0.92961100  0.93388800  1
  H  2351  1  0.80525800  0.91749700  0.89083900  1
  H  2352  1  0.81916200  0.88592500  0.87616300  1
  H  2353  1  0.74609500  0.85379500  0.94709800  1
  H  2354  1  0.76551100  0.82301700  0.93671500  1
  H  2363  1  0.02886900  0.68815600  0.38617200  1
  H  2371  1  0.09511600  0.56794300  0.43393600  1
  H  2373  1  0.03702000  0.58004700  0.39089300  1
  H  2374  1  0.02312200  0.61161400  0.37620700  1
  H  2375  1  0.09622400  0.64376500  0.44710900  1
  H  2376  1  0.07681700  0.67454600  0.43670800  1
  H  2385  1  0.36116500  0.35313000  0.24727000  1
  H  2393  1  0.24428300  0.42629000  0.20206300  1
  H  2395  1  0.25423000  0.37238500  0.24853900  1
  H  2396  1  0.28533100  0.35591100  0.26187000  1
  H  2397  1  0.31694900  0.41441200  0.18158100  1
  H  2398  1  0.34670000  0.39361400  0.19201300  1
  H  2407  1  0.48112300  0.14445400  0.74731100  1
  H  2415  1  0.59803700  0.07127200  0.70215600  1
  H  2417  1  0.58807100  0.12518700  0.74863300  1
  H  2418  1  0.55696300  0.14168400  0.76194400  1
  H  2419  1  0.52540100  0.08321800  0.68161200  1
  H  2420  1  0.49564600  0.10400100  0.69204000  1
  H  2429  1  0.81301600  0.68856600  0.99635399  1
  H  2437  1  0.74806100  0.56794800  0.94811000  1
  H  2439  1  0.80532500  0.58033500  0.99186399  1
  H  2440  1  0.81886000  0.61200600  0.00664400  1
  H  2441  1  0.74730100  0.64364600  0.93443800  1
  H  2442  1  0.76653300  0.67451600  0.94493900  1
  H  2451  1  0.02921300  0.80900200  0.49634700  1
  H  2459  1  0.09424600  0.92953200  0.44806800  1
  H  2461  1  0.03695300  0.91721800  0.49181100  1
  H  2462  1  0.02339600  0.88556300  0.50660500  1
  H  2463  1  0.09495500  0.85384700  0.43442200  1
  H  2464  1  0.07571500  0.82299000  0.44494300  1
  H  2473  1  0.98311800  0.35519300  0.24479100  1
  H  2481  1  0.10241400  0.42365800  0.19751600  1
  H  2483  1  0.09120600  0.36382000  0.23892400  1
  H  2484  1  0.05996400  0.34891200  0.25331200  1
  H  2485  1  0.02636200  0.42482300  0.18507600  1
  H  2486  1  0.99578297  0.40500700  0.19537600  1
  H  2495  1  0.85917800  0.14237200  0.74482000  1
  H  2503  1  0.73988000  0.07391900  0.69752100  1
  H  2505  1  0.75109200  0.13377300  0.73892600  1
  H  2506  1  0.78233200  0.14867900  0.75331900  1
  H  2507  1  0.81593600  0.07273800  0.68510300  1
  H  2508  1  0.84651500  0.09254600  0.69541200  1
  H  2517  1  0.52353700  0.68722600  0.99570099  1
  H  2525  1  0.60045300  0.57162600  0.95224800  1
  H  2527  1  0.54346900  0.58038900  0.99629599  1
  H  2528  1  0.52569100  0.61102500  0.00907700  1
  H  2529  1  0.58949600  0.64477900  0.93241700  1
  H  2530  1  0.56803700  0.67423600  0.94242300  1
  H  2539  1  0.31873500  0.81035000  0.49567400  1
  H  2547  1  0.24189800  0.92592200  0.45210200  1
  H  2549  1  0.29887800  0.91719500  0.49615700  1
  H  2550  1  0.31665200  0.88656900  0.50896300  1
  H  2551  1  0.25283800  0.85275100  0.43232800  1
  H  2552  1  0.27427300  0.82329100  0.44237300  1
  H  2561  1  0.98258500  0.14195000  0.63745100  1
  H  2569  1  0.10248400  0.07500200  0.68508500  1
  H  2571  1  0.09081200  0.13408300  0.64302100  1
  H  2572  1  0.05941500  0.14855100  0.62853700  1
  H  2573  1  0.02658900  0.07396100  0.69808900  1
  H  2574  1  0.99585797  0.09355400  0.68773300  1
  H  2583  1  0.85970300  0.35557900  0.13740400  1
  H  2591  1  0.73983900  0.42257500  0.18511800  1
  H  2593  1  0.75148000  0.36352300  0.14299000  1
  H  2594  1  0.78286600  0.34903600  0.12849800  1
  H  2595  1  0.81575300  0.42351700  0.19812500  1
  H  2596  1  0.84647100  0.40392900  0.18773000  1
  H  2605  1  0.52389300  0.80988000  0.88651100  1
  H  2613  1  0.59963900  0.92595500  0.93032100  1
  H  2615  1  0.54318200  0.91686300  0.88586000  1
  H  2616  1  0.52573500  0.88608700  0.87297200  1
  H  2617  1  0.58834200  0.85300400  0.95055900  1
  H  2618  1  0.56711100  0.82341600  0.94044000  1
  H  2627  1  0.31839900  0.68760900  0.38654200  1
  H  2635  1  0.24271200  0.57154300  0.43041200  1
  H  2637  1  0.29919700  0.58061700  0.38597300  1
  H  2638  1  0.31664000  0.61138700  0.37307400  1
  H  2639  1  0.25395200  0.64451800  0.45059700  1
  H  2640  1  0.27516800  0.67411100  0.44045800  1
  H  2649  1  0.85975300  0.64704600  0.13607500  1
  H  2657  1  0.74383500  0.57231500  0.18148400  1
  H  2659  1  0.75225100  0.63191900  0.13979500  1
  H  2660  1  0.78295400  0.64818300  0.12562800  1
  H  2661  1  0.81843300  0.57966900  0.19870000  1
  H  2662  1  0.84795500  0.60096000  0.18847000  1
  H  2671  1  0.98258200  0.85044900  0.63606700  1
  H  2679  1  0.09848000  0.92523400  0.68148300  1
  H  2681  1  0.09008200  0.86558000  0.63982200  1
  H  2682  1  0.05938400  0.84930100  0.62565000  1
  H  2683  1  0.02386400  0.91788700  0.69866400  1
  H  2684  1  0.99435097  0.89658600  0.68843200  1
  H  2693  1  0.31690600  0.31136700  0.38767900  1
  H  2701  1  0.24132800  0.42703000  0.43230200  1
  H  2703  1  0.30228500  0.41894100  0.39193700  1
  H  2704  1  0.31900500  0.38833600  0.37803200  1
  H  2705  1  0.24894200  0.35253800  0.44988800  1
  H  2706  1  0.27023100  0.32300100  0.43973400  1
  H  2715  1  0.52542200  0.18613900  0.88770700  1
  H  2723  1  0.60094700  0.07047500  0.93237300  1
  H  2725  1  0.53999400  0.07856600  0.89200100  1
  H  2726  1  0.52327800  0.10917100  0.87808600  1
  H  2727  1  0.59333200  0.14496500  0.94995400  1
  H  2728  1  0.57206900  0.17451100  0.93977400  1
  H  2737  1  0.86006900  0.85068300  0.74644600  1
  H  2745  1  0.74387400  0.92431900  0.70039100  1
  H  2747  1  0.75245800  0.86540200  0.74271800  1
  H  2748  1  0.78324000  0.84944300  0.75703300  1
  H  2749  1  0.81832800  0.91658100  0.68290900  1
  H  2750  1  0.84792300  0.89546900  0.69331100  1
  H  2759  1  0.98226200  0.64692000  0.24646100  1
  H  2767  1  0.09842800  0.57323200  0.20039300  1
  H  2769  1  0.08986600  0.63215500  0.24273100  1
  H  2770  1  0.05909000  0.64813400  0.25704900  1
  H  2771  1  0.02398100  0.58102300  0.18290900  1
  H  2772  1  0.99439697  0.60214300  0.19331700  1
  H  2781  1  0.31666000  0.18659900  0.49476800  1
  H  2789  1  0.24216200  0.07057400  0.44971300  1
  H  2791  1  0.30241500  0.07890800  0.49075100  1
  H  2792  1  0.31884600  0.10962400  0.50475300  1
  H  2793  1  0.25030600  0.14482900  0.43162600  1
  H  2794  1  0.27143800  0.17445300  0.44189200  1
  H  2803  1  0.52568500  0.31095400  0.99472799  1
  H  2811  1  0.60011700  0.42700000  0.94966600  1
  H  2813  1  0.53985200  0.41864700  0.99069499  1
  H  2814  1  0.52343300  0.38792700  0.00469500  1
  H  2815  1  0.59198200  0.35275100  0.93156200  1
  H  2816  1  0.57088000  0.32311400  0.94184500  1
  H  2823  1  0.53139700  0.05184600  0.70673900  1
  H  2830  1  0.57332500  0.94133700  0.66332900  1
  H  2831  1  0.55566400  0.95304100  0.71898000  1
  H  2832  1  0.58857200  0.05223600  0.67423000  1
  H  2834  1  0.56521100  0.99661800  0.64852800  1
  H  2835  1  0.57275000  0.97174600  0.64210400  1
  H  2837  1  0.50943300  0.02014200  0.70698700  1
  H  2838  1  0.51707100  0.99719400  0.69674200  1
  H  2845  1  0.31089400  0.44574400  0.20678900  1
  H  2852  1  0.26919300  0.55631100  0.16338000  1
  H  2853  1  0.28645000  0.54450500  0.21910900  1
  H  2854  1  0.25383500  0.44534000  0.17413200  1
  H  2856  1  0.27746200  0.50106200  0.14855500  1
  H  2857  1  0.27001700  0.52595700  0.14210700  1
  H  2859  1  0.33281800  0.47749100  0.20714200  1
  H  2860  1  0.32518100  0.50044800  0.19690900  1
  H  2867  1  0.22143300  0.13628600  0.45832300  1
  H  2874  1  0.10969700  0.09960400  0.41383800  1
  H  2875  1  0.12201300  0.11198300  0.47042100  1
  H  2876  1  0.22074400  0.08147400  0.42301000  1
  H  2878  1  0.16517100  0.10739100  0.39942400  1
  H  2879  1  0.14006700  0.10122500  0.39260700  1
  H  2881  1  0.18974200  0.15809000  0.46053900  1
  H  2882  1  0.16650000  0.15128900  0.45035900  1
  H  2889  1  0.62086900  0.36132400  0.95824700  1
  H  2896  1  0.73257500  0.39820500  0.91377000  1
  H  2897  1  0.72037400  0.38531000  0.97028500  1
  H  2898  1  0.62152500  0.41614100  0.92294000  1
  H  2900  1  0.67708900  0.39051600  0.89937400  1
  H  2901  1  0.70217300  0.39678300  0.89257400  1
  H  2903  1  0.65247300  0.33941200  0.96024500  1
  H  2904  1  0.67571500  0.34623500  0.95006900  1
  H  2911  1  0.53175800  0.44656000  0.17484000  1
  H  2918  1  0.57236500  0.55691300  0.21932200  1
  H  2919  1  0.55705700  0.54535600  0.16314100  1
  H  2920  1  0.58830200  0.44589300  0.20813100  1
  H  2922  1  0.56400600  0.50148900  0.23367400  1
  H  2923  1  0.57112000  0.52637400  0.24041700  1
  H  2925  1  0.51004100  0.47844400  0.17416000  1
  H  2926  1  0.51758300  0.50135200  0.18452100  1
  H  2933  1  0.31051800  0.05087900  0.67481800  1
  H  2940  1  0.27002500  0.94048200  0.71925900  1
  H  2941  1  0.28521500  0.95210100  0.66306500  1
  H  2942  1  0.25404800  0.05154900  0.70819900  1
  H  2944  1  0.27848700  0.99587400  0.73364500  1
  H  2945  1  0.27142600  0.97097400  0.74038900  1
  H  2947  1  0.33226400  0.01899500  0.67415000  1
  H  2948  1  0.32470400  0.99609300  0.68451800  1
  H  2955  1  0.22039500  0.36176000  0.42299800  1
  H  2962  1  0.10890700  0.39688300  0.46873800  1
  H  2963  1  0.12086000  0.38690500  0.41175500  1
  H  2964  1  0.21999000  0.41576600  0.45920000  1
  H  2966  1  0.16456500  0.38889900  0.48258600  1
  H  2967  1  0.13947800  0.39460800  0.48973600  1
  H  2969  1  0.18855000  0.34022500  0.42036100  1
  H  2970  1  0.16536400  0.34686600  0.43071100  1
  H  2977  1  0.62189800  0.13571800  0.92308700  1
  H  2984  1  0.73337400  0.10037200  0.96878000  1
  H  2985  1  0.72150400  0.11089300  0.91185500  1
  H  2986  1  0.62228300  0.08170400  0.95927900  1
  H  2988  1  0.67771400  0.10826500  0.98263600  1
  H  2989  1  0.70278500  0.10244700  0.98976200  1
  H  2991  1  0.65365400  0.15737000  0.92066000  1
  H  2992  1  0.67684400  0.15070400  0.93099800  1
  H  2999  1  0.61904100  0.85988900  0.92484900  1
  H  3006  1  0.72973200  0.89981300  0.96905900  1
  H  3007  1  0.71797200  0.88567000  0.91269100  1
  H  3008  1  0.61854500  0.91611200  0.95852900  1
  H  3010  1  0.67429300  0.89169400  0.98340000  1
  H  3011  1  0.69923700  0.89855400  0.99016599  1
  H  3013  1  0.65107500  0.83839000  0.92365900  1
  H  3014  1  0.67409700  0.84599800  0.93380600  1
  H  3021  1  0.22328200  0.63751500  0.42480400  1
  H  3028  1  0.11256500  0.59791000  0.46912400  1
  H  3029  1  0.12430400  0.61166000  0.41268300  1
  H  3030  1  0.22379600  0.58143900  0.45865500  1
  H  3032  1  0.16801200  0.60610000  0.48339700  1
  H  3033  1  0.14305600  0.59936100  0.49021800  1
  H  3035  1  0.19123800  0.65899600  0.42356300  1
  H  3036  1  0.16820500  0.65139700  0.43369900  1
  H  3043  1  0.61999400  0.63742400  0.95831200  1
  H  3050  1  0.73041600  0.59880400  0.91284000  1
  H  3051  1  0.71908000  0.61095300  0.96960800  1
  H  3052  1  0.61929500  0.58179300  0.92393500  1
  H  3054  1  0.67480200  0.60715400  0.89906600  1
  H  3055  1  0.69972000  0.60067300  0.89196100  1
  H  3057  1  0.65215200  0.65875400  0.95981800  1
  H  3058  1  0.67511100  0.65129700  0.94948600  1
  H  3065  1  0.22233300  0.86017500  0.45822600  1
  H  3072  1  0.11189400  0.89890100  0.41280800  1
  H  3073  1  0.12318400  0.88641300  0.46952800  1
  H  3074  1  0.22303800  0.91575300  0.42378800  1
  H  3076  1  0.16750400  0.89061100  0.39902000  1
  H  3077  1  0.14259800  0.89716800  0.39194000  1
  H  3079  1  0.19025800  0.83875000  0.45957300  1
  H  3080  1  0.16728600  0.84622600  0.44926600  1
  H  3087  1  0.03340500  0.55160100  0.20941100  1
  H  3094  1  0.06942700  0.44128200  0.16248100  1
  H  3095  1  0.06133500  0.45232300  0.21981500  1
  H  3096  1  0.08730100  0.55262000  0.17308400  1
  H  3098  1  0.06062700  0.49705800  0.14939800  1
  H  3099  1  0.06636300  0.47213000  0.14186500  1
  H  3101  1  0.01266000  0.51920000  0.21201800  1
  H  3102  1  0.01985100  0.49621700  0.20159800  1
  H  3109  1  0.80886900  0.94597200  0.70945800  1
  H  3116  1  0.77299600  0.05629100  0.66249300  1
  H  3117  1  0.78084600  0.04522800  0.71984800  1
  H  3118  1  0.75504700  0.94492300  0.67305400  1
  H  3120  1  0.78190400  0.00052700  0.64943000  1
  H  3121  1  0.77623300  0.02546200  0.64187800  1
  H  3123  1  0.82958700  0.97839800  0.71210600  1
  H  3124  1  0.82239500  0.00137700  0.70168000  1
  H  3131  1  0.03376400  0.94706800  0.67206100  1
  H  3138  1  0.06865100  0.05700300  0.72016600  1
  H  3139  1  0.06227300  0.04644000  0.66260900  1
  H  3140  1  0.08710200  0.94571000  0.70896800  1
  H  3142  1  0.05972000  0.00106300  0.73268700  1
  H  3143  1  0.06510900  0.02594400  0.74051000  1
  H  3145  1  0.01321700  0.97960700  0.66926400  1
  H  3146  1  0.02029200  0.00249900  0.67988900  1
  H  3153  1  0.80855700  0.55048100  0.17209900  1
  H  3160  1  0.77340100  0.44055300  0.22015300  1
  H  3161  1  0.78034900  0.45102800  0.16263600  1
  H  3162  1  0.75519000  0.55182200  0.20897800  1
  H  3164  1  0.78230900  0.49648500  0.23269100  1
  H  3165  1  0.77678100  0.47162500  0.24049000  1
  H  3167  1  0.82924900  0.51803400  0.16951000  1
  H  3168  1  0.82215500  0.49513500  0.18011700  1
  H  3175  1  0.38536200  0.89252700  0.64699900  1
  H  3182  1  0.45669200  0.89101800  0.73609600  1
  H  3183  1  0.48106500  0.85924900  0.68865400  1
  H  3184  1  0.36167700  0.85771100  0.69312500  1
  H  3186  1  0.40291800  0.89863300  0.71834700  1
  H  3187  1  0.41941300  0.90229900  0.73629200  1
  H  3189  1  0.42229800  0.90490800  0.64741700  1
  H  3190  1  0.43883400  0.90069900  0.66524700  1
  H  3197  1  0.45695800  0.60492200  0.14704700  1
  H  3204  1  0.38565100  0.60656700  0.23616400  1
  H  3205  1  0.36127600  0.63827000  0.18869000  1
  H  3206  1  0.48068300  0.63972100  0.19316800  1
  H  3208  1  0.43937900  0.59881000  0.21837100  1
  H  3209  1  0.42289400  0.59518400  0.23632800  1
  H  3211  1  0.42001800  0.59254900  0.14748300  1
  H  3212  1  0.40349400  0.59677600  0.16531800  1
  H  3219  1  0.06213200  0.28303400  0.39628800  1
  H  3226  1  0.06094300  0.21465700  0.48661100  1
  H  3227  1  0.02800100  0.18885800  0.44029100  1
  H  3228  1  0.02672900  0.30819800  0.44153800  1
  H  3230  1  0.06805800  0.26788000  0.46752600  1
  H  3231  1  0.07216200  0.25196500  0.48578200  1
  H  3233  1  0.07424400  0.24601400  0.39758700  1
  H  3234  1  0.06971200  0.23004700  0.41573700  1
  H  3241  1  0.78033500  0.21446300  0.89629600  1
  H  3248  1  0.78148900  0.28292000  0.98658500  1
  H  3249  1  0.81442900  0.30867500  0.94024600  1
  H  3250  1  0.81569700  0.18933600  0.94158100  1
  H  3252  1  0.77437300  0.22968000  0.96753300  1
  H  3253  1  0.77027200  0.24560900  0.98578100  1
  H  3255  1  0.76815100  0.25145700  0.89760300  1
  H  3256  1  0.77266500  0.26743200  0.91575100  1
  H  3263  1  0.45638600  0.11009000  0.73504100  1
  H  3270  1  0.38620600  0.11106100  0.64679700  1
  H  3271  1  0.36138700  0.14630900  0.69227800  1
  H  3272  1  0.48043200  0.14768700  0.69063400  1
  H  3274  1  0.43988500  0.10499100  0.66526700  1
  H  3275  1  0.42357300  0.09989100  0.64744200  1
  H  3277  1  0.41932100  0.09798200  0.73396500  1
  H  3278  1  0.40291600  0.10341000  0.71627100  1
  H  3285  1  0.38595000  0.38742200  0.23500600  1
  H  3292  1  0.45610900  0.38639000  0.14674900  1
  H  3293  1  0.48090500  0.35112000  0.19222500  1
  H  3294  1  0.36184700  0.34989200  0.19058300  1
  H  3296  1  0.40246400  0.39257500  0.16525800  1
  H  3297  1  0.41877300  0.39765200  0.14742500  1
  H  3299  1  0.42303300  0.39947100  0.23393800  1
  H  3300  1  0.43942800  0.39403400  0.21623900  1
  H  3307  1  0.77761600  0.71333800  0.98565400  1
  H  3314  1  0.77985300  0.78366800  0.89560300  1
  H  3315  1  0.80994600  0.80869800  0.94360600  1
  H  3316  1  0.81239800  0.68947100  0.93955100  1
  H  3318  1  0.77181200  0.73008900  0.91366600  1
  H  3319  1  0.76874200  0.74632300  0.89547100  1
  H  3321  1  0.76482200  0.75015900  0.98493000  1
  H  3322  1  0.76870100  0.76647300  0.96690200  1
  H  3329  1  0.06460600  0.78421300  0.48567200  1
  H  3336  1  0.06241600  0.71388700  0.39560700  1
  H  3337  1  0.03236800  0.68883500  0.44362200  1
  H  3338  1  0.02984700  0.80806000  0.43954800  1
  H  3340  1  0.07043900  0.76746600  0.41367300  1
  H  3341  1  0.07350100  0.75124100  0.39547300  1
  H  3343  1  0.07750800  0.74743500  0.48491300  1
  H  3344  1  0.07365300  0.73112400  0.46687500  1
  H  3351  1  0.88482200  0.39153700  0.14701800  1
  H  3358  1  0.95696400  0.38905100  0.23651700  1
  H  3359  1  0.98134300  0.36062700  0.18758400  1
  H  3360  1  0.86162500  0.35791400  0.19393900  1
  H  3362  1  0.90302500  0.39724300  0.21939900  1
  H  3363  1  0.91961300  0.39988500  0.23739600  1
  H  3365  1  0.92162400  0.40421900  0.14706400  1
  H  3366  1  0.93829000  0.40067400  0.16489900  1
  H  3373  1  0.95747400  0.10601500  0.64705100  1
  H  3380  1  0.88533600  0.10850900  0.73656000  1
  H  3381  1  0.86095900  0.13690400  0.68761400  1
  H  3382  1  0.98069600  0.13956200  0.69400000  1
  H  3384  1  0.93923000  0.10019300  0.71940000  1
  H  3385  1  0.92264800  0.09756700  0.73740400  1
  H  3387  1  0.92066400  0.09335500  0.64708700  1
  H  3388  1  0.90400200  0.09688700  0.66492400  1
  H  3395  1  0.55894500  0.78471900  0.89746900  1
  H  3402  1  0.55774000  0.71302800  0.98556400  1
  H  3403  1  0.52441400  0.68876600  0.93886400  1
  H  3404  1  0.52304100  0.80831900  0.94302100  1
  H  3406  1  0.56427700  0.76700200  0.96794300  1
  H  3407  1  0.56873800  0.75039300  0.98568200  1
  H  3409  1  0.57088200  0.74763500  0.89783600  1
  H  3410  1  0.56599300  0.73096100  0.91544900  1
  H  3417  1  0.28339600  0.71278600  0.39747100  1
  H  3424  1  0.28457000  0.78454200  0.48554700  1
  H  3425  1  0.31788600  0.80875600  0.43882400  1
  H  3426  1  0.31923200  0.68920300  0.44306700  1
  H  3428  1  0.27801700  0.73055300  0.46796100  1
  H  3429  1  0.27356700  0.74717700  0.48569200  1
  H  3431  1  0.27139900  0.74984700  0.39784400  1
  H  3432  1  0.27626000  0.76652100  0.41546200  1
  H  3439  1  0.95650400  0.61176500  0.23539700  1
  H  3446  1  0.88624900  0.61322900  0.14620700  1
  H  3447  1  0.86117600  0.64565000  0.19308600  1
  H  3448  1  0.98054200  0.64760200  0.18995000  1
  H  3450  1  0.93994400  0.60644700  0.16443600  1
  H  3451  1  0.92367800  0.60231600  0.14641100  1
  H  3453  1  0.91948200  0.59954700  0.23461600  1
  H  3454  1  0.90310100  0.60418800  0.21675400  1
  H  3461  1  0.88583500  0.88580000  0.73538200  1
  H  3468  1  0.95607100  0.88427900  0.64617200  1
  H  3469  1  0.98114500  0.85190300  0.69307500  1
  H  3470  1  0.86176200  0.85000400  0.68992400  1
  H  3472  1  0.90241200  0.89117100  0.66443800  1
  H  3473  1  0.91867200  0.89527200  0.64640300  1
  H  3475  1  0.92285500  0.89801900  0.73458700  1
  H  3476  1  0.93922300  0.89338100  0.71671800  1
  H  3483  1  0.28089800  0.21196700  0.48458100  1
  H  3490  1  0.28269900  0.28514700  0.39674200  1
  H  3491  1  0.31423300  0.30872500  0.44458700  1
  H  3492  1  0.31640200  0.18939800  0.43842400  1
  H  3494  1  0.27549700  0.23093100  0.41365200  1
  H  3495  1  0.27172500  0.24777200  0.39595700  1
  H  3497  1  0.26845100  0.24890400  0.48463800  1
  H  3498  1  0.27286400  0.26583600  0.46711400  1
  H  3505  1  0.56139900  0.28559300  0.98456900  1
  H  3512  1  0.55962300  0.21234700  0.89675100  1
  H  3513  1  0.52809200  0.18881700  0.94461400  1
  H  3514  1  0.52596200  0.30814200  0.93836800  1
  H  3516  1  0.56684700  0.26657300  0.91363000  1
  H  3517  1  0.57060800  0.24971700  0.89594300  1
  H  3519  1  0.57391300  0.24868200  0.98461400  1
  H  3520  1  0.56952300  0.23174600  0.96708600  1
  H  3527  1  0.52110700  0.89005300  0.77471500  1
  H  3534  1  0.49097100  0.83522000  0.86612900  1
  H  3535  1  0.55667000  0.85159100  0.85581400  1
  H  3536  1  0.50876200  0.82292500  0.76776200  1
  H  3538  1  0.47476100  0.83766600  0.81834400  1
  H  3539  1  0.46657400  0.83279000  0.83990900  1
  H  3541  1  0.52298500  0.90456600  0.80530800  1
  H  3542  1  0.51966900  0.88929100  0.82406500  1
  H  3549  1  0.32152800  0.60750200  0.27470000  1
  H  3556  1  0.35127400  0.66258800  0.36614400  1
  H  3557  1  0.28571500  0.64562300  0.35586900  1
  H  3558  1  0.33333333  0.67473900  0.26782400  1
  H  3560  1  0.36747600  0.66024200  0.31835800  1
  H  3561  1  0.37562000  0.66525200  0.33991100  1
  H  3563  1  0.31979200  0.59292000  0.30527700  1
  H  3564  1  0.32299900  0.60818800  0.32405200  1
  H  3571  1  0.06222500  0.15328300  0.52574500  1
  H  3578  1  0.00302000  0.17621900  0.61845300  1
  H  3579  1  0.03153000  0.11485500  0.60795600  1
  H  3580  1  0.99399797  0.15940200  0.52093100  1
  H  3582  1  0.00459100  0.19379200  0.57102200  1
  H  3583  1  0.99730197  0.20036300  0.59248700  1
  H  3585  1  0.07821000  0.15324100  0.55583600  1
  H  3586  1  0.06356600  0.15549300  0.57506000  1
  H  3593  1  0.78017600  0.34432000  0.02566500  1
  H  3600  1  0.83930400  0.32134800  0.11841000  1
  H  3601  1  0.81073200  0.38268100  0.10790600  1
  H  3602  1  0.84840100  0.33813800  0.02089000  1
  H  3604  1  0.83779800  0.30378600  0.07097700  1
  H  3605  1  0.84506600  0.29721300  0.09244500  1
  H  3607  1  0.76416500  0.34421400  0.05573800  1
  H  3608  1  0.77879800  0.34194600  0.07496800  1
  H  3615  1  0.52136200  0.60714500  0.10753700  1
  H  3622  1  0.49045500  0.66103200  0.01578900  1
  H  3623  1  0.55642200  0.64615500  0.02651500  1
  H  3624  1  0.50740800  0.67400200  0.11418900  1
  H  3626  1  0.47388700  0.65812800  0.06347300  1
  H  3627  1  0.46577100  0.66283800  0.04186100  1
  H  3629  1  0.52365800  0.59251200  0.07699800  1
  H  3630  1  0.52000500  0.60760400  0.05817800  1
  H  3637  1  0.32124000  0.89033600  0.60756600  1
  H  3644  1  0.35175900  0.83615900  0.51577200  1
  H  3645  1  0.28594700  0.85176100  0.52645300  1
  H  3646  1  0.33468600  0.82336200  0.61411400  1
  H  3648  1  0.36832900  0.83894800  0.56345700  1
  H  3649  1  0.37639400  0.83408000  0.54185700  1
  H  3651  1  0.31912600  0.90506700  0.57705200  1
  H  3652  1  0.32268200  0.88998900  0.55820900  1
  H  3659  1  0.06254000  0.34439500  0.35656700  1
  H  3666  1  0.00395400  0.32086500  0.26349600  1
  H  3667  1  0.03186200  0.38242700  0.27430300  1
  H  3668  1  0.99440497  0.33696500  0.36094800  1
  H  3670  1  0.00580900  0.30294100  0.31082800  1
  H  3671  1  0.99854797  0.29645900  0.28933700  1
  H  3673  1  0.07878500  0.34472200  0.32657600  1
  H  3674  1  0.06435500  0.34216700  0.30726200  1
  H  3681  1  0.77988400  0.15308800  0.85664000  1
  H  3688  1  0.83840400  0.17667900  0.76353400  1
  H  3689  1  0.81039000  0.11516200  0.77432900  1
  H  3690  1  0.84801700  0.16056900  0.86097600  1
  H  3692  1  0.83662300  0.19457600  0.81087400  1
  H  3693  1  0.84387300  0.20106000  0.78938000  1
  H  3695  1  0.76360500  0.15293400  0.82666900  1
  H  3696  1  0.77802100  0.15551600  0.80734900  1
  H  3703  1  0.32535000  0.10823400  0.60719100  1
  H  3710  1  0.34940400  0.16557100  0.51420100  1
  H  3711  1  0.28717300  0.13896400  0.52461100  1
  H  3712  1  0.33116000  0.17652800  0.61159900  1
  H  3714  1  0.36637400  0.16460000  0.56179500  1
  H  3715  1  0.37339600  0.17122400  0.54027500  1
  H  3717  1  0.32546100  0.09199900  0.57717600  1
  H  3718  1  0.32769200  0.10651100  0.55787400  1
  H  3725  1  0.51675400  0.38921100  0.10718700  1
  H  3732  1  0.49296500  0.33181000  0.01417500  1
  H  3733  1  0.55507500  0.35870900  0.02456500  1
  H  3734  1  0.51134100  0.32088100  0.11154600  1
  H  3736  1  0.47601100  0.33270800  0.06177200  1
  H  3737  1  0.46901700  0.32603800  0.04025600  1
  H  3739  1  0.51649800  0.40547700  0.07718000  1
  H  3740  1  0.51434700  0.39096300  0.05787200  1
  H  3747  1  0.78121300  0.85170000  0.85895000  1
  H  3754  1  0.83567300  0.81784400  0.76685400  1
  H  3755  1  0.81588700  0.88289800  0.77560100  1
  H  3756  1  0.84747200  0.83446500  0.86400100  1
  H  3758  1  0.83277000  0.80263800  0.81479900  1
  H  3759  1  0.83865100  0.79428600  0.79348100  1
  H  3761  1  0.76555600  0.85431300  0.82892700  1
  H  3762  1  0.77962600  0.84960900  0.80973000  1
  H  3769  1  0.06104500  0.64581000  0.35897200  1
  H  3776  1  0.00666800  0.67975200  0.26686600  1
  H  3777  1  0.02642900  0.61469200  0.27562900  1
  H  3778  1  0.99481297  0.66315200  0.36402900  1
  H  3780  1  0.00952400  0.69495700  0.31481300  1
  H  3781  1  0.00368300  0.70331300  0.29348900  1
  H  3783  1  0.07672100  0.64334000  0.32895600  1
  H  3784  1  0.06265300  0.64808300  0.30976300  1
  H  3791  1  0.32511500  0.38952000  0.27516100  1
  H  3798  1  0.34973600  0.33269600  0.36848000  1
  H  3799  1  0.28737900  0.35887200  0.35780900  1
  H  3800  1  0.33217600  0.32130900  0.27115500  1
  H  3802  1  0.36702200  0.33392700  0.32096900  1
  H  3803  1  0.37394800  0.32729700  0.34251000  1
  H  3805  1  0.32496800  0.40599800  0.30508000  1
  H  3806  1  0.32750400  0.39168700  0.32446300  1
  H  3813  1  0.51697300  0.10804800  0.77517800  1
  H  3820  1  0.49260700  0.16494700  0.86850100  1
  H  3821  1  0.55487100  0.13853900  0.85784600  1
  H  3822  1  0.51030700  0.17629800  0.77119500  1
  H  3824  1  0.47532900  0.16375800  0.82099000  1
  H  3825  1  0.46842500  0.17042700  0.84252700  1
  H  3827  1  0.51703000  0.09155300  0.80509400  1
  H  3828  1  0.51457900  0.10586900  0.82448200  1
  H  3835  1  0.78098100  0.64575200  0.02353100  1
  H  3842  1  0.83483100  0.68002400  0.11585800  1
  H  3843  1  0.81601100  0.61474700  0.10677700  1
  H  3844  1  0.84697600  0.66403700  0.01866400  1
  H  3846  1  0.83161000  0.69553300  0.06799000  1
  H  3847  1  0.83739900  0.70382100  0.08934500  1
  H  3849  1  0.76527400  0.64284100  0.05352300  1
  H  3850  1  0.77921000  0.64774300  0.07275700  1
  H  3857  1  0.06124400  0.85179600  0.52350100  1
  H  3864  1  0.00745900  0.81748800  0.61585300  1
  H  3865  1  0.02637000  0.88273900  0.60676700  1
  H  3866  1  0.99525397  0.83349100  0.51865800  1
  H  3868  1  0.01060500  0.80198600  0.56797900  1
  H  3869  1  0.00484100  0.79369800  0.58933900  1
  H  3871  1  0.07699900  0.85453300  0.55348000  1
  H  3872  1  0.06307100  0.84960300  0.57271400  1
  H  3879  1  0.72295700  0.88354000  0.69055300  1
  H  3886  1  0.61932900  0.92826300  0.73245500  1
  H  3887  1  0.61714400  0.86360400  0.71302100  1
  H  3888  1  0.72774200  0.90040800  0.74694300  1
  H  3890  1  0.67699200  0.93175500  0.73513800  1
  H  3891  1  0.65356700  0.94448600  0.73858100  1
  H  3893  1  0.68823200  0.88026700  0.67686800  1
  H  3894  1  0.66529500  0.88427900  0.68839600  1
  H  3901  1  0.11935300  0.61397500  0.19058000  1
  H  3908  1  0.22299900  0.56935300  0.23264000  1
  H  3909  1  0.22516800  0.63394000  0.21303900  1
  H  3910  1  0.11456200  0.59715500  0.24697700  1
  H  3912  1  0.16534600  0.56579600  0.23517700  1
  H  3913  1  0.18877400  0.55311100  0.23872200  1
  H  3915  1  0.15408100  0.61720400  0.17688800  1
  H  3916  1  0.17701300  0.61317200  0.18842200  1
  H  3923  1  0.05292400  0.94889900  0.44015000  1
  H  3930  1  0.09760200  0.05145400  0.48326300  1
  H  3931  1  0.03250200  0.05391400  0.46498400  1
  H  3932  1  0.07129000  0.94279700  0.49611900  1
  H  3934  1  0.10141000  0.99380300  0.48477300  1
  H  3935  1  0.11408700  0.01718800  0.48849100  1
  H  3937  1  0.04859600  0.98394900  0.42730100  1
  H  3938  1  0.05246200  0.00660600  0.43925300  1
  H  3945  1  0.78941800  0.54862200  0.94019800  1
  H  3952  1  0.74464300  0.44602200  0.98315900  1
  H  3953  1  0.80977000  0.44364400  0.96489000  1
  H  3954  1  0.77097900  0.55469800  0.99614599  1
  H  3956  1  0.74084500  0.50368000  0.98480100  1
  H  3957  1  0.72815600  0.48028700  0.98845500  1
  H  3959  1  0.79360600  0.51358700  0.92731900  1
  H  3960  1  0.78965100  0.49092900  0.93925300  1
  H  3967  1  0.72284100  0.61274400  0.19173100  1
  H  3974  1  0.61884600  0.56994300  0.14935100  1
  H  3975  1  0.61740700  0.63437000  0.16937700  1
  H  3976  1  0.72764500  0.59712600  0.13507800  1
  H  3978  1  0.67647000  0.56593000  0.14637400  1
  H  3979  1  0.65290400  0.55347500  0.14288400  1
  H  3981  1  0.68809300  0.61594400  0.20540500  1
  H  3982  1  0.66516000  0.61242100  0.19375300  1
  H  3989  1  0.11947400  0.88483900  0.69173000  1
  H  3996  1  0.22349600  0.92748000  0.64917100  1
  H  3997  1  0.22490500  0.86313600  0.66938800  1
  H  3998  1  0.11466800  0.90036400  0.63506100  1
  H  4000  1  0.16588000  0.93157000  0.64633600  1
  H  4001  1  0.18945300  0.94396800  0.64273800  1
  H  4003  1  0.15422700  0.88168500  0.70541100  1
  H  4004  1  0.17715500  0.88521200  0.69375000  1
  H  4011  1  0.05416000  0.54849400  0.44234600  1
  H  4018  1  0.09668100  0.44550900  0.39860900  1
  H  4019  1  0.03186300  0.44387900  0.41765200  1
  H  4020  1  0.07114800  0.55457600  0.38605900  1
  H  4022  1  0.10111100  0.50312000  0.39686900  1
  H  4023  1  0.11345800  0.47957800  0.39304000  1
  H  4025  1  0.04990900  0.51343100  0.45521600  1
  H  4026  1  0.05323900  0.49077800  0.44313800  1
  H  4033  1  0.78811100  0.94906600  0.94230100  1
  H  4040  1  0.74556900  0.05209900  0.89865100  1
  H  4041  1  0.81039000  0.05362300  0.91774500  1
  H  4042  1  0.77111800  0.94299300  0.88601900  1
  H  4044  1  0.74113000  0.99448300  0.89678500  1
  H  4045  1  0.72878500  0.01803700  0.89300300  1
  H  4047  1  0.79219900  0.98412200  0.95519400  1
  H  4048  1  0.78879700  0.00677100  0.94312300  1
  H  4055  1  0.12273500  0.11614500  0.69335900  1
  H  4062  1  0.22388300  0.06853900  0.64968600  1
  H  4063  1  0.22800100  0.13390800  0.66708200  1
  H  4064  1  0.11557900  0.09794200  0.63746400  1
  H  4066  1  0.16606700  0.06607700  0.64891100  1
  H  4067  1  0.18908700  0.05273100  0.64516500  1
  H  4069  1  0.15804900  0.11959500  0.70593700  1
  H  4070  1  0.18046800  0.11502400  0.69382500  1
  H  4077  1  0.71959000  0.38144400  0.19332700  1
  H  4084  1  0.61840100  0.42898100  0.14956600  1
  H  4085  1  0.61432100  0.36363800  0.16703700  1
  H  4086  1  0.72673300  0.39966700  0.13743900  1
  H  4088  1  0.67620500  0.43152500  0.14894000  1
  H  4089  1  0.65317900  0.44482900  0.14511300  1
  H  4091  1  0.68427200  0.37796400  0.20590800  1
  H  4092  1  0.66185100  0.38255300  0.19380400  1
  H  4099  1  0.12285900  0.38286200  0.18879600  1
  H  4106  1  0.22438200  0.42862400  0.23297000  1
  H  4107  1  0.22784400  0.36339800  0.21512200  1
  H  4108  1  0.11573100  0.39983900  0.24497700  1
  H  4110  1  0.16658500  0.43162700  0.23386600  1
  H  4111  1  0.18973600  0.44470800  0.23771900  1
  H  4113  1  0.15820800  0.37942500  0.17622000  1
  H  4114  1  0.18062900  0.38350300  0.18846400  1
  H  4121  1  0.71938400  0.11463700  0.68883500  1
  H  4128  1  0.61791800  0.06890300  0.73311200  1
  H  4129  1  0.61449200  0.13409000  0.71515600  1
  H  4130  1  0.72661000  0.09774200  0.74502700  1
  H  4132  1  0.67571900  0.06589600  0.73403000  1
  H  4133  1  0.65256500  0.05282100  0.73789000  1
  H  4135  1  0.68401900  0.11790200  0.67627900  1
  H  4136  1  0.66162800  0.11377900  0.68855000  1
  H  4143  1  0.55985800  0.44860700  0.93938300  1
  H  4150  1  0.60187700  0.55229600  0.98374800  1
  H  4151  1  0.53771500  0.55357300  0.96314900  1
  H  4152  1  0.57510800  0.44287600  0.99603599  1
  H  4154  1  0.60645300  0.49462400  0.98556600  1
  H  4155  1  0.61864100  0.51821000  0.98962300  1
  H  4157  1  0.55675000  0.48359200  0.92610500  1
  H  4158  1  0.56027300  0.50633100  0.93803400  1
  H  4165  1  0.28247700  0.04902100  0.43940100  1
  H  4172  1  0.24044300  0.94521200  0.48364200  1
  H  4173  1  0.30461200  0.94400100  0.46302200  1
  H  4174  1  0.26714600  0.05462600  0.49603900  1
  H  4176  1  0.23581100  0.00287500  0.48544300  1
  H  4177  1  0.22365100  0.97927900  0.48951700  1
  H  4179  1  0.28556500  0.01406400  0.42606400  1
  H  4180  1  0.28199700  0.99130300  0.43795400  1
  H  4187  1  0.56099300  0.04879100  0.94305000  1
  H  4194  1  0.60130700  0.94476700  0.89835700  1
  H  4195  1  0.53732100  0.94412200  0.91935000  1
  H  4196  1  0.57513300  0.05449200  0.88618500  1
  H  4198  1  0.60636000  0.00240000  0.89636300  1
  H  4199  1  0.61829500  0.97869600  0.89223300  1
  H  4201  1  0.55790000  0.01378000  0.95632800  1
  H  4202  1  0.56096800  0.99104100  0.94430400  1
  H  4209  1  0.28125900  0.44871200  0.44301800  1
  H  4216  1  0.24102700  0.55280500  0.39837600  1
  H  4217  1  0.30497100  0.55333000  0.41950000  1
  H  4218  1  0.26717600  0.44304300  0.38614500  1
  H  4220  1  0.23595000  0.49517300  0.39625300  1
  H  4221  1  0.22403400  0.51889300  0.39215300  1
  H  4223  1  0.28418500  0.48370800  0.45632700  1
  H  4224  1  0.28108100  0.50644900  0.44430700  1
  C  1  1  0.58239100  0.88131900  0.07037800  1
  C  2  1  0.58417100  0.86866200  0.08687500  1
  C  3  1  0.56494900  0.86075400  0.09568700  1
  C  4  1  0.54466300  0.86283700  0.08656800  1
  C  5  1  0.54263800  0.87387300  0.06943000  1
  C  6  1  0.56144300  0.88452100  0.06203800  1
  C  7  1  0.60515500  0.86504300  0.09452400  1
  C  8  1  0.55985100  0.89946000  0.04712800  1
  C  10  1  0.60136500  0.89205400  0.06319600  1
  C  11  1  0.62249200  0.88819100  0.07101000  1
  C  12  1  0.64110400  0.89950900  0.06399500  1
  C  13  1  0.63773700  0.91612100  0.05066500  1
  C  14  1  0.61685700  0.92126300  0.04378900  1
  C  15  1  0.59882000  0.90814900  0.04911200  1
  C  16  1  0.62396600  0.87396100  0.08639600  1
  C  18  1  0.57796600  0.91154100  0.04123700  1
  C  23  1  0.35792200  0.61627700  0.57045400  1
  C  24  1  0.35614500  0.62896700  0.58693300  1
  C  25  1  0.37538000  0.63689200  0.59570400  1
  C  26  1  0.39567700  0.63475100  0.58662200  1
  C  27  1  0.39768400  0.62370800  0.56948500  1
  C  28  1  0.37886400  0.61306700  0.56210500  1
  C  29  1  0.33516900  0.63259500  0.59459300  1
  C  30  1  0.38044500  0.59810700  0.54720800  1
  C  32  1  0.33894000  0.60553300  0.56328800  1
  C  33  1  0.31781900  0.60941000  0.57110800  1
  C  34  1  0.29919800  0.59809800  0.56410300  1
  C  35  1  0.30256100  0.58145900  0.55079800  1
  C  36  1  0.32342800  0.57632700  0.54389000  1
  C  37  1  0.34147400  0.58943200  0.54920800  1
  C  38  1  0.31635900  0.62363700  0.58649700  1
  C  40  1  0.36232600  0.58602400  0.54133100  1
  C  45  1  0.10009400  0.13754700  0.82205100  1
  C  46  1  0.08800300  0.13596100  0.83887100  1
  C  47  1  0.08043900  0.15530900  0.84770200  1
  C  48  1  0.08222700  0.17548600  0.83838100  1
  C  49  1  0.09264700  0.17726500  0.82094900  1
  C  50  1  0.10309000  0.15839000  0.81348800  1
  C  51  1  0.08461500  0.11506600  0.84676200  1
  C  52  1  0.11763800  0.15982600  0.79828300  1
  C  54  1  0.11048100  0.11848200  0.81469500  1
  C  55  1  0.10669600  0.09743100  0.82267200  1
  C  56  1  0.11755500  0.07870300  0.81538200  1
  C  57  1  0.13368900  0.08183000  0.80159700  1
  C  58  1  0.13884200  0.10264600  0.79462600  1
  C  59  1  0.12614800  0.12084500  0.80023800  1
  C  60  1  0.09306500  0.09614200  0.83845900  1
  C  62  1  0.12951200  0.14163600  0.79225400  1
  C  67  1  0.84027800  0.36000900  0.32197200  1
  C  68  1  0.85236500  0.36161700  0.33879100  1
  C  69  1  0.85996800  0.34229800  0.34764100  1
  C  70  1  0.85817500  0.32211000  0.33832700  1
  C  71  1  0.84776300  0.32030300  0.32089200  1
  C  72  1  0.83729700  0.33915900  0.31342200  1
  C  73  1  0.85572500  0.38251700  0.34668000  1
  C  74  1  0.82275800  0.33770100  0.29821100  1
  C  76  1  0.82987200  0.37906000  0.31460800  1
  C  77  1  0.83360900  0.40011400  0.32258700  1
  C  78  1  0.82273800  0.41882000  0.31527400  1
  C  79  1  0.80660100  0.41565000  0.30149800  1
  C  80  1  0.80147700  0.39481900  0.29450100  1
  C  81  1  0.81422700  0.37667900  0.30013800  1
  C  82  1  0.84720400  0.40141900  0.33839500  1
  C  84  1  0.81088600  0.35588100  0.29216300  1
  C  89  1  0.58224400  0.61650300  0.50618300  1
  C  90  1  0.58384900  0.62889400  0.48952700  1
  C  91  1  0.56451700  0.63649800  0.48068500  1
  C  92  1  0.54428900  0.63441100  0.48989900  1
  C  93  1  0.54246000  0.62367500  0.50718700  1
  C  94  1  0.56137300  0.61331000  0.51465600  1
  C  95  1  0.60477600  0.63255900  0.48177900  1
  C  96  1  0.55996200  0.59866600  0.52978900  1
  C  98  1  0.60132200  0.60600500  0.51341700  1
  C  99  1  0.62237600  0.60986400  0.50546500  1
  C  100  1  0.64108000  0.59873400  0.51251600  1
  C  101  1  0.63788100  0.58227700  0.52601100  1
  C  102  1  0.61706700  0.57711000  0.53302000  1
  C  103  1  0.59894900  0.59010700  0.52768200  1
  C  104  1  0.62369000  0.62389300  0.48993900  1
  C  106  1  0.57817300  0.58675200  0.53571600  1
  C  111  1  0.35806700  0.88091300  0.00611800  1
  C  112  1  0.35646300  0.86849600  0.98947600  1
  C  113  1  0.37580600  0.86087600  0.98067000  1
  C  114  1  0.39604500  0.86301200  0.98985100  1
  C  115  1  0.39785900  0.87373800  0.00714300  1
  C  116  1  0.37893500  0.88410200  0.01460000  1
  C  117  1  0.33554200  0.86483200  0.98171600  1
  C  118  1  0.38033900  0.89875600  0.02972800  1
  C  120  1  0.33898700  0.89142400  0.01333700  1
  C  121  1  0.31793700  0.88756400  0.00537800  1
  C  122  1  0.29923300  0.89869800  0.01241600  1
  C  123  1  0.30243200  0.91517600  0.02589100  1
  C  124  1  0.32323400  0.92032200  0.03293400  1
  C  125  1  0.34135500  0.90732400  0.02760200  1
  C  126  1  0.31663200  0.87354400  0.98984500  1
  C  128  1  0.36212600  0.91068000  0.03564100  1
  C  133  1  0.09965100  0.35978800  0.75450300  1
  C  134  1  0.08782200  0.36123400  0.73753800  1
  C  135  1  0.08056200  0.34179900  0.72865900  1
  C  136  1  0.08237100  0.32165900  0.73803700  1
  C  137  1  0.09250400  0.32002900  0.75559800  1
  C  138  1  0.10265900  0.33900000  0.76315500  1
  C  139  1  0.08438100  0.38208900  0.72958000  1
  C  140  1  0.11693000  0.33771600  0.77856000  1
  C  142  1  0.10978000  0.37894700  0.76193700  1
  C  143  1  0.10597700  0.39994100  0.75386600  1
  C  144  1  0.11660600  0.41875200  0.76123300  1
  C  145  1  0.13256000  0.41578000  0.77518800  1
  C  146  1  0.13779100  0.39501200  0.78222800  1
  C  147  1  0.12525100  0.37673200  0.77656400  1
  C  148  1  0.09257700  0.40109500  0.73793100  1
  C  150  1  0.12860900  0.35599800  0.78465700  1
  C  155  1  0.84073900  0.13772400  0.25456700  1
  C  156  1  0.85256900  0.13625800  0.23760500  1
  C  157  1  0.85986900  0.15566600  0.22870900  1
  C  158  1  0.85805500  0.17581800  0.23808300  1
  C  159  1  0.84792600  0.17747300  0.25564400  1
  C  160  1  0.83774300  0.15852000  0.26320600  1
  C  161  1  0.85597900  0.11540000  0.22964600  1
  C  162  1  0.82347300  0.15982600  0.27861000  1
  C  164  1  0.83058400  0.11858100  0.26200200  1
  C  165  1  0.83433900  0.09758400  0.25392700  1
  C  166  1  0.82368500  0.07879800  0.26130800  1
  C  167  1  0.80771300  0.08181500  0.27524400  1
  C  168  1  0.80251500  0.10259800  0.28231000  1
  C  169  1  0.81512500  0.12081600  0.27663300  1
  C  170  1  0.84772600  0.09640900  0.23798700  1
  C  172  1  0.81178600  0.14155500  0.28471900  1
  C  177  1  0.35890800  0.11932100  0.00512400  1
  C  178  1  0.35696800  0.13089100  0.98807000  1
  C  179  1  0.37600200  0.13930300  0.97931200  1
  C  180  1  0.39611500  0.13867400  0.98884800  1
  C  181  1  0.39814000  0.12895700  0.00655700  1
  C  182  1  0.37963000  0.11802800  0.01419100  1
  C  183  1  0.33606300  0.13294200  0.97986800  1
  C  184  1  0.38127300  0.10480400  0.03023000  1
  C  186  1  0.34044900  0.10758500  0.01213300  1
  C  187  1  0.31943600  0.10981500  0.00372400  1
  C  188  1  0.30137300  0.09761500  0.01063300  1
  C  189  1  0.30566000  0.08094400  0.02372200  1
  C  190  1  0.32665200  0.07711100  0.03118100  1
  C  191  1  0.34345300  0.09232800  0.02682000  1
  C  192  1  0.31754500  0.12337900  0.98794500  1
  C  194  1  0.36370900  0.09199500  0.03620800  1
  C  199  1  0.58137900  0.37811600  0.50506100  1
  C  200  1  0.58332300  0.36653400  0.48801100  1
  C  201  1  0.56428300  0.35810000  0.47928800  1
  C  202  1  0.54415300  0.35876300  0.48879100  1
  C  203  1  0.54214200  0.36846900  0.50650500  1
  C  204  1  0.56065800  0.37939100  0.51413800  1
  C  205  1  0.60422400  0.36450100  0.47979600  1
  C  206  1  0.55902000  0.39260800  0.53018300  1
  C  208  1  0.59983400  0.38986700  0.51206000  1
  C  209  1  0.62084300  0.38765700  0.50364100  1
  C  210  1  0.63890000  0.39986900  0.51054100  1
  C  211  1  0.63460700  0.41653900  0.52362900  1
  C  212  1  0.61362500  0.42033000  0.53112300  1
  C  213  1  0.59683100  0.40510600  0.52676200  1
  C  214  1  0.62273000  0.37410900  0.48785100  1
  C  216  1  0.57658600  0.40540900  0.53616700  1
  C  221  1  0.83887700  0.86071200  0.25665000  1
  C  222  1  0.85244400  0.86274600  0.24072500  1
  C  223  1  0.85976200  0.84363500  0.23139600  1
  C  224  1  0.85684800  0.82309700  0.23992500  1
  C  225  1  0.84530600  0.82085800  0.25680200  1
  C  226  1  0.83463400  0.83959700  0.26424700  1
  C  227  1  0.85771700  0.88390500  0.23424500  1
  C  228  1  0.81882700  0.83785400  0.27848300  1
  C  230  1  0.82848900  0.87971900  0.26407200  1
  C  231  1  0.83402200  0.90104000  0.25748600  1
  C  232  1  0.82364400  0.91973600  0.26532500  1
  C  233  1  0.80554400  0.91645700  0.27718900  1
  C  234  1  0.79891500  0.89549000  0.28283100  1
  C  235  1  0.81151600  0.87714700  0.27738700  1
  C  236  1  0.84963100  0.90265600  0.24309500  1
  C  238  1  0.80690100  0.85608200  0.28436400  1
  C  243  1  0.10139500  0.63683600  0.75668100  1
  C  244  1  0.08781400  0.63479600  0.74076700  1
  C  245  1  0.08047700  0.65388300  0.73141900  1
  C  246  1  0.08342300  0.67443000  0.73994300  1
  C  247  1  0.09496900  0.67668400  0.75681500  1
  C  248  1  0.10565400  0.65795300  0.76426100  1
  C  249  1  0.08253300  0.61363800  0.73429800  1
  C  250  1  0.12146800  0.65970400  0.77849200  1
  C  252  1  0.11177900  0.61783100  0.76411300  1
  C  253  1  0.10624700  0.59650800  0.75753000  1
  C  254  1  0.11661300  0.57781500  0.76538400  1
  C  255  1  0.13471600  0.58110000  0.77724800  1
  C  256  1  0.14133800  0.60207200  0.78289600  1
  C  257  1  0.12874700  0.62040700  0.77742700  1
  C  258  1  0.09064700  0.59488900  0.74313400  1
  C  260  1  0.13337700  0.64147300  0.78439100  1
  C  265  1  0.35904700  0.37777800  0.57146000  1
  C  266  1  0.35720600  0.36646800  0.58864900  1
  C  267  1  0.37630500  0.35826600  0.59745600  1
  C  268  1  0.39639100  0.35883700  0.58787100  1
  C  269  1  0.39830000  0.36827200  0.57004600  1
  C  270  1  0.37972200  0.37897200  0.56230800  1
  C  271  1  0.33632900  0.36447300  0.59691300  1
  C  272  1  0.38124700  0.39186900  0.54606900  1
  C  274  1  0.34054300  0.38939000  0.56439000  1
  C  275  1  0.31957800  0.38727400  0.57290100  1
  C  276  1  0.30150200  0.39942400  0.56596700  1
  C  277  1  0.30573000  0.41595600  0.55274200  1
  C  278  1  0.32668100  0.41967100  0.54515200  1
  C  279  1  0.34346500  0.40443900  0.54953600  1
  C  280  1  0.31775200  0.37387500  0.58878800  1
  C  282  1  0.36363700  0.40457300  0.54001600  1
  C  287  1  0.58124500  0.11979600  0.07152800  1
  C  288  1  0.58307900  0.13111400  0.08871400  1
  C  289  1  0.56396800  0.13933400  0.09748100  1
  C  290  1  0.54387300  0.13872100  0.08792300  1
  C  291  1  0.54198300  0.12930700  0.07008800  1
  C  292  1  0.56057600  0.11861700  0.06236000  1
  C  293  1  0.60394800  0.13310000  0.09699800  1
  C  294  1  0.55906900  0.10573400  0.04611000  1
  C  296  1  0.59975100  0.10817600  0.06446900  1
  C  297  1  0.62070700  0.11027500  0.07300000  1
  C  298  1  0.63878700  0.09812600  0.06607100  1
  C  299  1  0.63456100  0.08159400  0.05284600  1
  C  300  1  0.61362500  0.07791300  0.04521800  1
  C  301  1  0.59684300  0.09315000  0.04959700  1
  C  302  1  0.62251300  0.12363900  0.08890700  1
  C  304  1  0.57668700  0.09304600  0.04005200  1
  C  309  1  0.83924300  0.63701300  0.31987400  1
  C  310  1  0.85246600  0.63508700  0.33602100  1
  C  311  1  0.85952100  0.65427100  0.34540000  1
  C  312  1  0.85668000  0.67477300  0.33678200  1
  C  313  1  0.84551200  0.67686900  0.31972000  1
  C  314  1  0.83510600  0.65807400  0.31213100  1
  C  315  1  0.85765900  0.61396100  0.34263000  1
  C  316  1  0.81968900  0.65971800  0.29758100  1
  C  318  1  0.82906900  0.61795400  0.31234400  1
  C  319  1  0.83451200  0.59667300  0.31908000  1
  C  320  1  0.82432200  0.57792500  0.31115000  1
  C  321  1  0.80639500  0.58111900  0.29908000  1
  C  322  1  0.79987500  0.60205700  0.29328500  1
  C  323  1  0.81236000  0.62044400  0.29878200  1
  C  324  1  0.84982700  0.59514800  0.33370200  1
  C  326  1  0.80788400  0.64144900  0.29161600  1
  C  331  1  0.10098400  0.86052400  0.81984800  1
  C  332  1  0.08775200  0.86246400  0.83598600  1
  C  333  1  0.08066000  0.84330900  0.84538200  1
  C  334  1  0.08351900  0.82279500  0.83677200  1
  C  335  1  0.09469300  0.82067800  0.81971400  1
  C  336  1  0.10511700  0.83945800  0.81212100  1
  C  337  1  0.08256700  0.88359600  0.84258500  1
  C  338  1  0.12053500  0.83779500  0.79757200  1
  C  340  1  0.11116800  0.87957300  0.81231200  1
  C  341  1  0.10575700  0.90085900  0.81904600  1
  C  342  1  0.11595500  0.91959000  0.81109700  1
  C  343  1  0.13388000  0.91636400  0.79902900  1
  C  344  1  0.14038600  0.89541400  0.79321800  1
  C  345  1  0.12786600  0.87706700  0.79874100  1
  C  346  1  0.09046600  0.90239800  0.83368500  1
  C  348  1  0.13233000  0.85605800  0.79158400  1
  C  353  1  0.08298800  0.37980300  0.56857400  1
  C  354  1  0.08534100  0.36556800  0.58403800  1
  C  355  1  0.06640200  0.35796000  0.59348500  1
  C  356  1  0.04568600  0.36117300  0.58531500  1
  C  357  1  0.04308800  0.37333900  0.56878500  1
  C  358  1  0.06171100  0.38428500  0.56138500  1
  C  359  1  0.10666300  0.35988700  0.58990000  1
  C  360  1  0.05971200  0.40056300  0.54756700  1
  C  362  1  0.10186900  0.39047500  0.56117400  1
  C  363  1  0.12332400  0.38483000  0.56740400  1
  C  364  1  0.14189900  0.39566300  0.55979800  1
  C  365  1  0.13836600  0.41401100  0.54828200  1
  C  366  1  0.11729400  0.42065100  0.54291500  1
  C  367  1  0.09904200  0.40788200  0.54830800  1
  C  368  1  0.12524500  0.36855500  0.58120400  1
  C  370  1  0.07783600  0.41268100  0.54172300  1
  C  375  1  0.85728600  0.11774800  0.06861100  1
  C  376  1  0.85493300  0.13199500  0.08406700  1
  C  377  1  0.87387100  0.13960500  0.09351400  1
  C  378  1  0.89459000  0.13636800  0.08535600  1
  C  379  1  0.89718800  0.12421200  0.06882200  1
  C  380  1  0.87856400  0.11326800  0.06142000  1
  C  381  1  0.83361200  0.13767900  0.08992800  1
  C  382  1  0.88056300  0.09698800  0.04760400  1
  C  384  1  0.83840600  0.10707700  0.06120900  1
  C  385  1  0.81695100  0.11272500  0.06743600  1
  C  386  1  0.79837400  0.10190000  0.05982400  1
  C  387  1  0.80191100  0.08354200  0.04832100  1
  C  388  1  0.82298000  0.07691200  0.04293600  1
  C  389  1  0.84123300  0.08967400  0.04833900  1
  C  390  1  0.81503400  0.12898500  0.08124900  1
  C  392  1  0.86244000  0.08486700  0.04176000  1
  C  397  1  0.59929900  0.63679800  0.32045600  1
  C  398  1  0.58680200  0.63451600  0.33699700  1
  C  399  1  0.57795900  0.65341200  0.34570400  1
  C  400  1  0.57895400  0.67368800  0.33645300  1
  C  401  1  0.58958800  0.67605500  0.31915800  1
  C  402  1  0.60094600  0.65769000  0.31170400  1
  C  403  1  0.58419900  0.61340200  0.34470300  1
  C  404  1  0.61488200  0.65962800  0.29613800  1
  C  406  1  0.61143700  0.61847400  0.31365600  1
  C  407  1  0.60894500  0.59731700  0.32178300  1
  C  408  1  0.62173300  0.57943500  0.31529500  1
  C  409  1  0.63883000  0.58395400  0.30267900  1
  C  410  1  0.64266600  0.60500400  0.29535400  1
  C  411  1  0.62731100  0.62175600  0.29949000  1
  C  412  1  0.59443700  0.59509200  0.33690200  1
  C  414  1  0.62800200  0.64218300  0.29037600  1
  C  419  1  0.34099100  0.86075900  0.82037800  1
  C  420  1  0.35349000  0.86305500  0.83691500  1
  C  421  1  0.36233100  0.84417900  0.84565100  1
  C  422  1  0.36132000  0.82388800  0.83641100  1
  C  423  1  0.35070500  0.82150400  0.81910700  1
  C  424  1  0.33933700  0.83985700  0.81164600  1
  C  425  1  0.35610900  0.88417900  0.84459700  1
  C  426  1  0.32540600  0.83790600  0.79607700  1
  C  428  1  0.32886400  0.87908100  0.81355800  1
  C  429  1  0.33135600  0.90024300  0.82166900  1
  C  430  1  0.31858200  0.91811900  0.81515700  1
  C  431  1  0.30149800  0.91359300  0.80253200  1
  C  432  1  0.29767000  0.89254200  0.79519000  1
  C  433  1  0.31300500  0.87579200  0.79938300  1
  C  434  1  0.34585600  0.90247900  0.83679300  1
  C  436  1  0.31229500  0.85534900  0.79029700  1
  C  441  1  0.08277300  0.11820400  0.00807300  1
  C  442  1  0.08495600  0.13211900  0.99238000  1
  C  443  1  0.06591100  0.13943400  0.98290500  1
  C  444  1  0.04525400  0.13624600  0.99119900  1
  C  445  1  0.04286000  0.12442700  0.00792300  1
  C  446  1  0.06157400  0.11377900  0.01544300  1
  C  447  1  0.10622200  0.13778400  0.98635700  1
  C  448  1  0.05973300  0.09787200  0.02958300  1
  C  450  1  0.10174100  0.10778000  0.01555800  1
  C  451  1  0.12313300  0.11339100  0.00916000  1
  C  452  1  0.14179500  0.10279800  0.01685900  1
  C  453  1  0.13838800  0.08458400  0.02855700  1
  C  454  1  0.11737400  0.07792800  0.03407200  1
  C  455  1  0.09906300  0.09060600  0.02867000  1
  C  456  1  0.12489700  0.12937400  0.99510200  1
  C  458  1  0.07793600  0.08590100  0.03547700  1
  C  463  1  0.85751400  0.37935900  0.50803500  1
  C  464  1  0.85531900  0.36545200  0.49233700  1
  C  465  1  0.87435800  0.35812700  0.48285800  1
  C  466  1  0.89501900  0.36131500  0.49114400  1
  C  467  1  0.89742300  0.37309800  0.50788300  1
  C  468  1  0.87871800  0.38375300  0.51541200  1
  C  469  1  0.83404600  0.35981200  0.48631100  1
  C  470  1  0.88057300  0.39963800  0.52957100  1
  C  472  1  0.83855300  0.38979000  0.51553000  1
  C  473  1  0.81715300  0.38420100  0.50912800  1
  C  474  1  0.79849700  0.39480600  0.51683000  1
  C  475  1  0.80190600  0.41300800  0.52854000  1
  C  476  1  0.82293100  0.41956600  0.53409400  1
  C  477  1  0.84125300  0.40693400  0.52866500  1
  C  478  1  0.81538000  0.36824100  0.49505200  1
  C  480  1  0.86238100  0.41161400  0.53548100  1
  C  485  1  0.59889700  0.86058000  0.25618600  1
  C  486  1  0.58668300  0.86272000  0.23947800  1
  C  487  1  0.57811400  0.84373200  0.23071300  1
  C  488  1  0.57907800  0.82349700  0.24004100  1
  C  489  1  0.58939200  0.82128900  0.25748700  1
  C  490  1  0.60047900  0.83974800  0.26504700  1
  C  491  1  0.58407800  0.88379900  0.23169600  1
  C  492  1  0.61406900  0.83796900  0.28084500  1
  C  494  1  0.61084900  0.87898200  0.26306300  1
  C  495  1  0.60842900  0.90008000  0.25481700  1
  C  496  1  0.62110400  0.91801000  0.26135100  1
  C  497  1  0.63805200  0.91359700  0.27413200  1
  C  498  1  0.64181800  0.89259900  0.28159900  1
  C  499  1  0.62649600  0.87582800  0.27743000  1
  C  500  1  0.59411700  0.90219000  0.23955100  1
  C  502  1  0.62703300  0.85549000  0.28669400  1
  C  507  1  0.34140200  0.63692100  0.75624500  1
  C  508  1  0.35363000  0.63477100  0.73954600  1
  C  509  1  0.36220000  0.65374200  0.73075900  1
  C  510  1  0.36121200  0.67398800  0.74007800  1
  C  511  1  0.35090600  0.67621100  0.75752800  1
  C  512  1  0.33980200  0.65776100  0.76508700  1
  C  513  1  0.35625600  0.61368400  0.73178500  1
  C  514  1  0.32619800  0.65955100  0.78087700  1
  C  516  1  0.32946400  0.61851800  0.76313600  1
  C  517  1  0.33189000  0.59741600  0.75490100  1
  C  518  1  0.31922700  0.57948600  0.76145400  1
  C  519  1  0.30228000  0.58390400  0.77423600  1
  C  520  1  0.29851400  0.60490300  0.78171600  1
  C  521  1  0.31381500  0.62167400  0.77750200  1
  C  522  1  0.34620200  0.59530100  0.73963600  1
  C  524  1  0.31323700  0.64203200  0.78673100  1
  C  529  1  0.85863200  0.62081900  0.50645000  1
  C  530  1  0.85595000  0.63401100  0.49036800  1
  C  531  1  0.87469500  0.64237700  0.48112800  1
  C  532  1  0.89529500  0.64077700  0.48980300  1
  C  533  1  0.89798500  0.62984000  0.50692600  1
  C  534  1  0.87979300  0.61837200  0.51451400  1
  C  535  1  0.83454600  0.63793300  0.48374500  1
  C  536  1  0.88210000  0.60369400  0.52954600  1
  C  538  1  0.84031100  0.60898500  0.51355400  1
  C  539  1  0.81881600  0.61284200  0.50656800  1
  C  540  1  0.80086300  0.60093400  0.51400400  1
  C  541  1  0.80540400  0.58269800  0.52539700  1
  C  542  1  0.82673500  0.57747300  0.53139400  1
  C  543  1  0.84379800  0.59240200  0.52708000  1
  C  544  1  0.81626800  0.62849400  0.49232600  1
  C  546  1  0.86462900  0.59067300  0.53539900  1
  C  551  1  0.08166600  0.87671900  0.00643000  1
  C  552  1  0.08435700  0.86350800  0.99036000  1
  C  553  1  0.06561700  0.85512800  0.98112200  1
  C  554  1  0.04501000  0.85675000  0.98978300  1
  C  555  1  0.04231600  0.86768400  0.00690500  1
  C  556  1  0.06050200  0.87916300  0.01449200  1
  C  557  1  0.10576300  0.85958600  0.98374200  1
  C  558  1  0.05818700  0.89385100  0.02951500  1
  C  560  1  0.09998300  0.88856200  0.01353400  1
  C  561  1  0.12148200  0.88470600  0.00655300  1
  C  562  1  0.13943500  0.89661500  0.01399200  1
  C  563  1  0.13488700  0.91486500  0.02536800  1
  C  564  1  0.11355400  0.92006900  0.03136000  1
  C  565  1  0.09648600  0.90514600  0.02705500  1
  C  566  1  0.12403000  0.86906700  0.99230100  1
  C  568  1  0.07565300  0.90687500  0.03537000  1
  C  573  1  0.33959000  0.36140600  0.75806200  1
  C  574  1  0.35313400  0.36417300  0.74220000  1
  C  575  1  0.36152500  0.34546700  0.73288400  1
  C  576  1  0.35959400  0.32479300  0.74141200  1
  C  577  1  0.34829700  0.32194500  0.75834900  1
  C  578  1  0.33691200  0.34017700  0.76596600  1
  C  579  1  0.35738800  0.38564800  0.73588300  1
  C  580  1  0.32209900  0.33786300  0.78089400  1
  C  582  1  0.32763600  0.37972400  0.76506500  1
  C  583  1  0.33157200  0.40125900  0.75817800  1
  C  584  1  0.31934600  0.41917700  0.76533700  1
  C  585  1  0.30086400  0.41452100  0.77641300  1
  C  586  1  0.29566900  0.39316200  0.78237100  1
  C  587  1  0.31082200  0.37618100  0.77836400  1
  C  588  1  0.34766600  0.40387700  0.74430900  1
  C  590  1  0.30907600  0.35535600  0.78670200  1
  C  595  1  0.60069700  0.13610300  0.25810100  1
  C  596  1  0.58714500  0.13333600  0.24224300  1
  C  597  1  0.57873600  0.15202900  0.23292200  1
  C  598  1  0.58069600  0.17270900  0.24144400  1
  C  599  1  0.59198600  0.17556400  0.25838400  1
  C  600  1  0.60337800  0.15733300  0.26599800  1
  C  601  1  0.58287900  0.11186100  0.23593400  1
  C  602  1  0.61818200  0.15964900  0.28093100  1
  C  604  1  0.61264000  0.11778500  0.26511100  1
  C  605  1  0.60871100  0.09625000  0.25822300  1
  C  606  1  0.62092100  0.07833000  0.26539800  1
  C  607  1  0.63938500  0.08298600  0.27649700  1
  C  608  1  0.64457500  0.10434400  0.28247700  1
  C  609  1  0.62943900  0.12132100  0.27842500  1
  C  610  1  0.59264800  0.09363800  0.24433000  1
  C  612  1  0.63119400  0.14215300  0.28675000  1
  C  617  1  0.85876700  0.87621600  0.07003000  1
  C  618  1  0.85616800  0.86333400  0.08630500  1
  C  619  1  0.87497100  0.85519700  0.09562100  1
  C  620  1  0.89555200  0.85673400  0.08689700  1
  C  621  1  0.89814100  0.86735400  0.06962600  1
  C  622  1  0.87989000  0.87856500  0.06187900  1
  C  623  1  0.83478300  0.85948500  0.09301000  1
  C  624  1  0.88210400  0.89287700  0.04658400  1
  C  626  1  0.84040100  0.88787100  0.06279800  1
  C  627  1  0.81893600  0.88411700  0.06988700  1
  C  628  1  0.80095300  0.89587900  0.06233500  1
  C  629  1  0.80545600  0.91397200  0.05076700  1
  C  630  1  0.82676600  0.91912900  0.04467700  1
  C  631  1  0.84382100  0.90421400  0.04905500  1
  C  632  1  0.81645800  0.86872900  0.08434300  1
  C  634  1  0.86459300  0.90576900  0.04060900  1
  C  639  1  0.08153200  0.62134900  0.57005900  1
  C  640  1  0.08413500  0.63423400  0.58633200  1
  C  641  1  0.06533400  0.64238700  0.59564000  1
  C  642  1  0.04475100  0.64083800  0.58692200  1
  C  643  1  0.04216100  0.63024000  0.56964200  1
  C  644  1  0.06040900  0.61902200  0.56189900  1
  C  645  1  0.10551800  0.63806700  0.59304400  1
  C  646  1  0.05819200  0.60471900  0.54659600  1
  C  648  1  0.09989100  0.60968200  0.56282900  1
  C  649  1  0.12135700  0.61341800  0.56992100  1
  C  650  1  0.13933600  0.60165800  0.56236400  1
  C  651  1  0.13482200  0.58356500  0.55079900  1
  C  652  1  0.11351300  0.57843400  0.54468700  1
  C  653  1  0.09646700  0.59335500  0.54907000  1
  C  654  1  0.12383500  0.62877700  0.58439900  1
  C  656  1  0.07569900  0.59182700  0.54061300  1
  C  661  1  0.34005500  0.13631400  0.81844100  1
  C  662  1  0.35327400  0.13367600  0.83452000  1
  C  663  1  0.36144500  0.15246700  0.84386400  1
  C  664  1  0.35957900  0.17309400  0.83523600  1
  C  665  1  0.34863300  0.17578400  0.81812300  1
  C  666  1  0.33751100  0.15747400  0.81038100  1
  C  667  1  0.35743800  0.11223800  0.84098200  1
  C  668  1  0.32311300  0.15965200  0.79514600  1
  C  670  1  0.32827000  0.11794200  0.81134700  1
  C  671  1  0.33208000  0.09645800  0.81839400  1
  C  672  1  0.31999900  0.07850000  0.81114000  1
  C  673  1  0.30166400  0.08310000  0.79987100  1
  C  674  1  0.29656100  0.10442300  0.79375500  1
  C  675  1  0.31172000  0.12138400  0.79779200  1
  C  676  1  0.34788200  0.09394400  0.83251600  1
  C  678  1  0.31021300  0.14211100  0.78924700  1
  C  683  1  0.60023000  0.36124700  0.31839400  1
  C  684  1  0.58700300  0.36387900  0.33446800  1
  C  685  1  0.57882600  0.34509700  0.34382000  1
  C  686  1  0.58072200  0.32446800  0.33519300  1
  C  687  1  0.59166000  0.32177700  0.31807500  1
  C  688  1  0.60278500  0.34008700  0.31033800  1
  C  689  1  0.58282400  0.38531500  0.34092500  1
  C  690  1  0.61717800  0.33791400  0.29510100  1
  C  692  1  0.61200300  0.37962400  0.31129700  1
  C  693  1  0.60819400  0.40110600  0.31834800  1
  C  694  1  0.62026300  0.41906800  0.31109100  1
  C  695  1  0.63858600  0.41447100  0.29980500  1
  C  696  1  0.64368600  0.39315400  0.29366000  1
  C  697  1  0.62854400  0.37619200  0.29773200  1
  C  698  1  0.59240000  0.40361000  0.33247700  1
  C  700  1  0.63006900  0.35546100  0.28919700  1
  C  705  1  0.60903000  0.05654900  0.03784300  1
  C  706  1  0.62383900  0.04491600  0.02647200  1
  C  708  1  0.60458000  0.01116100  0.03082300  1
  C  709  1  0.58794500  0.02215000  0.04098400  1
  C  710  1  0.59106700  0.04452200  0.04488000  1
  C  712  1  0.60711700  0.98813700  0.03144900  1
  C  713  1  0.61414600  0.97428000  0.01671500  1
  C  714  1  0.61736300  0.95177800  0.02071900  1
  C  715  1  0.61353200  0.94337700  0.03867200  1
  C  716  1  0.60709600  0.95804000  0.05270400  1
  C  727  1  0.33127800  0.44106400  0.53784200  1
  C  728  1  0.31648500  0.45270000  0.52645500  1
  C  730  1  0.33571600  0.48643500  0.53087200  1
  C  731  1  0.35233200  0.47546500  0.54106900  1
  C  732  1  0.34922400  0.45308000  0.54491700  1
  C  734  1  0.33313800  0.50945500  0.53153700  1
  C  735  1  0.32626500  0.52334700  0.51677400  1
  C  736  1  0.32303600  0.54584500  0.52078700  1
  C  737  1  0.32674000  0.55421300  0.53877100  1
  C  738  1  0.33306900  0.53952300  0.55281800  1
  C  749  1  0.27456000  0.10886700  0.78786400  1
  C  750  1  0.26253000  0.09471900  0.77619500  1
  C  752  1  0.22899000  0.11375600  0.78212900  1
  C  753  1  0.24026300  0.12956000  0.79299200  1
  C  754  1  0.26274100  0.12617900  0.79620200  1
  C  756  1  0.20595100  0.11145600  0.78273900  1
  C  757  1  0.19187100  0.10620700  0.76762800  1
  C  758  1  0.16929400  0.10329900  0.77148500  1
  C  759  1  0.16104900  0.10574600  0.78966300  1
  C  760  1  0.17591700  0.11053300  0.80401700  1
  C  771  1  0.66570500  0.38875200  0.28780200  1
  C  772  1  0.67772700  0.40290500  0.27613400  1
  C  774  1  0.71129400  0.38391000  0.28208700  1
  C  775  1  0.70001400  0.36807100  0.29291500  1
  C  776  1  0.67753100  0.37143800  0.29612600  1
  C  778  1  0.73434500  0.38612300  0.28265400  1
  C  779  1  0.74839400  0.39153500  0.26756300  1
  C  780  1  0.77097900  0.39441100  0.27140800  1
  C  781  1  0.77926300  0.39178300  0.28955400  1
  C  782  1  0.76442500  0.38686500  0.30389700  1
  C  793  1  0.60904800  0.44174200  0.53837900  1
  C  794  1  0.62370700  0.45329500  0.54994500  1
  C  796  1  0.60466800  0.48712800  0.54536700  1
  C  797  1  0.58821600  0.47624400  0.53491500  1
  C  798  1  0.59129200  0.45385200  0.53107400  1
  C  800  1  0.60728100  0.51013600  0.54485600  1
  C  801  1  0.61364600  0.52395100  0.55983100  1
  C  802  1  0.61690900  0.54648500  0.55599500  1
  C  803  1  0.61380300  0.55493500  0.53795800  1
  C  804  1  0.60800700  0.54030200  0.52370100  1
  C  815  1  0.33122200  0.05567200  0.03838100  1
  C  816  1  0.31656800  0.04411500  0.04994900  1
  C  818  1  0.33560400  0.01030800  0.04534000  1
  C  819  1  0.35204800  0.02117600  0.03486900  1
  C  820  1  0.34897800  0.04357500  0.03105800  1
  C  822  1  0.33296600  0.98729800  0.04479700  1
  C  823  1  0.32668100  0.97345700  0.05977900  1
  C  824  1  0.32342300  0.95092300  0.05593100  1
  C  825  1  0.32649500  0.94249400  0.03788400  1
  C  826  1  0.33225600  0.95714400  0.02362800  1
  C  837  1  0.27363100  0.38875300  0.78814200  1
  C  838  1  0.26169400  0.40269600  0.80005200  1
  C  840  1  0.22808400  0.38389300  0.79390400  1
  C  841  1  0.23924900  0.36834000  0.78270300  1
  C  842  1  0.26173600  0.37169600  0.77951600  1
  C  844  1  0.20505300  0.38622800  0.79347300  1
  C  845  1  0.19107000  0.39078400  0.80880900  1
  C  846  1  0.16844500  0.39371500  0.80516700  1
  C  847  1  0.16007900  0.39199300  0.78697000  1
  C  848  1  0.17486700  0.38787300  0.77240200  1
  C  859  1  0.66663100  0.10871500  0.28821500  1
  C  860  1  0.67856300  0.09476400  0.30012200  1
  C  862  1  0.71219700  0.11352600  0.29395000  1
  C  863  1  0.70102100  0.12911800  0.28278500  1
  C  864  1  0.67853000  0.12577600  0.27960300  1
  C  866  1  0.73524000  0.11127400  0.29354400  1
  C  867  1  0.74920000  0.10654600  0.30885900  1
  C  868  1  0.77183000  0.10364600  0.30522000  1
  C  869  1  0.78022400  0.10554900  0.28704500  1
  C  870  1  0.76546000  0.10981200  0.27249200  1
  C  881  1  0.66331400  0.88799800  0.28863600  1
  C  882  1  0.67494100  0.90261900  0.30018300  1
  C  884  1  0.70881100  0.88385800  0.29508300  1
  C  885  1  0.69788800  0.86743700  0.28462600  1
  C  886  1  0.67541300  0.87039400  0.28106600  1
  C  888  1  0.73180000  0.88656200  0.29447300  1
  C  889  1  0.74567300  0.89260600  0.30950200  1
  C  890  1  0.76821800  0.89577100  0.30566700  1
  C  891  1  0.77660200  0.89293600  0.28757700  1
  C  892  1  0.76191000  0.88753900  0.27325900  1
  C  903  1  0.27697700  0.60946800  0.78866900  1
  C  904  1  0.26533700  0.59486100  0.80021900  1
  C  906  1  0.23148400  0.61358300  0.79504500  1
  C  907  1  0.24238700  0.62997400  0.78454400  1
  C  908  1  0.26487500  0.62703500  0.78103500  1
  C  910  1  0.20849300  0.61086400  0.79443800  1
  C  911  1  0.19461300  0.60498700  0.80951000  1
  C  912  1  0.17206000  0.60184200  0.80570400  1
  C  913  1  0.16366700  0.60457100  0.78760400  1
  C  914  1  0.17835700  0.60984900  0.77325300  1
  C  925  1  0.66419500  0.60962400  0.28842200  1
  C  926  1  0.67574500  0.59517300  0.27666900  1
  C  928  1  0.70963500  0.61384400  0.28184800  1
  C  929  1  0.69880700  0.63004000  0.29261800  1
  C  930  1  0.67633700  0.62707200  0.29619100  1
  C  932  1  0.73261400  0.61106100  0.28228500  1
  C  933  1  0.74638400  0.60561900  0.26702200  1
  C  934  1  0.76897100  0.60240600  0.27063600  1
  C  935  1  0.77749300  0.60462800  0.28874200  1
  C  936  1  0.76290300  0.60949300  0.30327300  1
  C  947  1  0.27611100  0.88795400  0.78831400  1
  C  948  1  0.26456000  0.90239500  0.77655200  1
  C  950  1  0.23064500  0.88378400  0.78180600  1
  C  951  1  0.24148900  0.86756700  0.79255300  1
  C  952  1  0.26396900  0.87051700  0.79609600  1
  C  954  1  0.20765400  0.88648700  0.78222100  1
  C  955  1  0.19389800  0.89204400  0.76697800  1
  C  956  1  0.17130700  0.89523500  0.77059400  1
  C  957  1  0.16277000  0.89290300  0.78868500  1
  C  958  1  0.17734900  0.88794600  0.80320200  1
  C  969  1  0.10926900  0.55653400  0.53849900  1
  C  970  1  0.12336800  0.54501900  0.52642600  1
  C  972  1  0.10536200  0.51097100  0.53248100  1
  C  973  1  0.08960400  0.52169600  0.54378300  1
  C  974  1  0.09244500  0.54424200  0.54705200  1
  C  976  1  0.10813300  0.48800300  0.53271300  1
  C  977  1  0.11239300  0.47430900  0.51713700  1
  C  978  1  0.11564800  0.45167600  0.52048300  1
  C  979  1  0.11464700  0.44307000  0.53863700  1
  C  980  1  0.11091500  0.45758600  0.55345900  1
  C  991  1  0.83099900  0.94104600  0.03852800  1
  C  992  1  0.81690500  0.95255400  0.02644500  1
  C  994  1  0.83490400  0.98658400  0.03251000  1
  C  995  1  0.85065000  0.97588300  0.04383900  1
  C  996  1  0.84782000  0.95333200  0.04709200  1
  C  998  1  0.83211000  0.00955300  0.03274900  1
  C  999  1  0.82795200  0.02325900  0.01716100  1
  C  1000  1  0.82469300  0.04589000  0.02050300  1
  C  1001  1  0.82562200  0.05449100  0.03866100  1
  C  1002  1  0.82928600  0.03996900  0.05349100  1
  C  1013  1  0.10934300  0.94199800  0.03747500  1
  C  1014  1  0.12329000  0.95339100  0.04975600  1
  C  1016  1  0.10540400  0.98749600  0.04370300  1
  C  1017  1  0.08984700  0.97690400  0.03211900  1
  C  1018  1  0.09267700  0.95436800  0.02878900  1
  C  1020  1  0.10825700  0.01045100  0.04366000  1
  C  1021  1  0.11199300  0.02401900  0.05941100  1
  C  1022  1  0.11526700  0.04669300  0.05628100  1
  C  1023  1  0.11477700  0.05545500  0.03816700  1
  C  1024  1  0.11152000  0.04105600  0.02317800  1
  C  1035  1  0.83093400  0.55553800  0.53749300  1
  C  1036  1  0.81698200  0.54414400  0.54976600  1
  C  1038  1  0.83485500  0.51002900  0.54369600  1
  C  1039  1  0.85045000  0.52064200  0.53215200  1
  C  1040  1  0.84762200  0.54318000  0.52882600  1
  C  1042  1  0.83208700  0.48706100  0.54367100  1
  C  1043  1  0.82816600  0.47351800  0.55940600  1
  C  1044  1  0.82489500  0.45084400  0.55627500  1
  C  1045  1  0.82556000  0.44205200  0.53817500  1
  C  1046  1  0.82897600  0.45642900  0.52319600  1
  C  1057  1  0.41896500  0.87496500  0.01561800  1
  C  1058  1  0.42280400  0.86569000  0.03325300  1
  C  1060  1  0.46018100  0.87751700  0.03334700  1
  C  1061  1  0.45753600  0.88707000  0.01544600  1
  C  1062  1  0.43675100  0.88545000  0.00684100  1
  C  1064  1  0.48010400  0.87746900  0.04349700  1
  C  1065  1  0.48256100  0.88607700  0.06175800  1
  C  1066  1  0.50342400  0.88455900  0.07023900  1
  C  1067  1  0.52146200  0.87503500  0.06103800  1
  C  1068  1  0.51775800  0.86656300  0.04308900  1
  C  1079  1  0.52135200  0.62247300  0.51566200  1
  C  1080  1  0.51752300  0.63175500  0.53329600  1
  C  1082  1  0.48013100  0.61997400  0.53339200  1
  C  1083  1  0.48276900  0.61040800  0.51549600  1
  C  1084  1  0.50355300  0.61201100  0.50688600  1
  C  1086  1  0.46021200  0.62004500  0.54354600  1
  C  1087  1  0.45775300  0.61145800  0.56181400  1
  C  1088  1  0.43689500  0.61300900  0.57030200  1
  C  1089  1  0.41885900  0.62252100  0.56108900  1
  C  1090  1  0.42256100  0.63096300  0.54312900  1
  C  1101  1  0.09328100  0.29909400  0.76438600  1
  C  1102  1  0.08370200  0.29581100  0.78198600  1
  C  1104  1  0.09547900  0.25847600  0.78302800  1
  C  1105  1  0.10523800  0.26050600  0.76515400  1
  C  1106  1  0.10380500  0.28102300  0.75608200  1
  C  1108  1  0.09544100  0.23896500  0.79369100  1
  C  1109  1  0.10444900  0.23710900  0.81186100  1
  C  1110  1  0.10310300  0.21653500  0.82084900  1
  C  1111  1  0.09336700  0.19824000  0.81220100  1
  C  1112  1  0.08443500  0.20138600  0.79433600  1
  C  1123  1  0.84714500  0.19842000  0.26441300  1
  C  1124  1  0.85671100  0.20171700  0.28201700  1
  C  1126  1  0.84493800  0.23905500  0.28302900  1
  C  1127  1  0.83518600  0.23700700  0.26515300  1
  C  1128  1  0.83663600  0.21648700  0.25608900  1
  C  1130  1  0.84496800  0.25857500  0.29368000  1
  C  1131  1  0.83596300  0.26044700  0.31185000  1
  C  1132  1  0.83730800  0.28102900  0.32082400  1
  C  1133  1  0.84704500  0.29931600  0.31216400  1
  C  1134  1  0.85598000  0.29615200  0.29430100  1
  C  1145  1  0.52089000  0.12902100  0.06156400  1
  C  1146  1  0.51718700  0.13939900  0.04435700  1
  C  1148  1  0.47992700  0.12740900  0.04349900  1
  C  1149  1  0.48235700  0.11686800  0.06099900  1
  C  1150  1  0.50306100  0.11798100  0.06977400  1
  C  1152  1  0.46030100  0.12740300  0.03303900  1
  C  1153  1  0.45808900  0.11754000  0.01523500  1
  C  1154  1  0.43733800  0.11849600  0.00652500  1
  C  1155  1  0.41925400  0.12875400  0.01506900  1
  C  1156  1  0.42277000  0.13854400  0.03255600  1
  C  1167  1  0.41939500  0.36853100  0.56152200  1
  C  1168  1  0.42308000  0.35816200  0.54430800  1
  C  1170  1  0.46035900  0.37008800  0.54345700  1
  C  1171  1  0.45794600  0.38062400  0.56096100  1
  C  1172  1  0.43724300  0.37953000  0.56974100  1
  C  1174  1  0.47998600  0.37007500  0.53299500  1
  C  1175  1  0.48220500  0.37994000  0.51519200  1
  C  1176  1  0.50295000  0.37895100  0.50647500  1
  C  1177  1  0.52102600  0.36868100  0.51501800  1
  C  1178  1  0.51750500  0.35889500  0.53250400  1
  C  1189  1  0.84422100  0.69794700  0.31131500  1
  C  1190  1  0.85336300  0.70162600  0.29361100  1
  C  1192  1  0.84115900  0.73883500  0.29325600  1
  C  1193  1  0.83172900  0.73633900  0.31122400  1
  C  1194  1  0.83362200  0.71569300  0.32002300  1
  C  1196  1  0.84119900  0.75862900  0.28297400  1
  C  1197  1  0.83318700  0.76080800  0.26448800  1
  C  1198  1  0.83490700  0.78156400  0.25585400  1
  C  1199  1  0.84401200  0.79972400  0.26516700  1
  C  1200  1  0.85192000  0.79628700  0.28333800  1
  C  1211  1  0.09598700  0.79959300  0.81132200  1
  C  1212  1  0.08685500  0.79590600  0.79361500  1
  C  1214  1  0.09907500  0.75870300  0.79326900  1
  C  1215  1  0.10850000  0.76120900  0.81123900  1
  C  1216  1  0.10657800  0.78185000  0.82004100  1
  C  1218  1  0.09906200  0.73891200  0.78298600  1
  C  1219  1  0.10705800  0.73674100  0.76449600  1
  C  1220  1  0.10534700  0.71598400  0.75586100  1
  C  1221  1  0.09626100  0.69782000  0.76517600  1
  C  1222  1  0.08836100  0.70124800  0.78335000  1
  C  1233  1  0.91866600  0.37454200  0.51606100  1
  C  1234  1  0.92267300  0.36573300  0.53383700  1
  C  1236  1  0.96007400  0.37757100  0.53350100  1
  C  1237  1  0.95720500  0.38669800  0.51544600  1
  C  1238  1  0.93635600  0.38478800  0.50696900  1
  C  1240  1  0.98015500  0.37753700  0.54350300  1
  C  1241  1  0.98269900  0.38508800  0.56210800  1
  C  1242  1  0.00366500  0.38336700  0.57040600  1
  C  1243  1  0.02177300  0.37476500  0.56067700  1
  C  1244  1  0.01801300  0.36732700  0.54240700  1
  C  1255  1  0.02162000  0.12297200  0.01610500  1
  C  1256  1  0.01762100  0.13176200  0.03389200  1
  C  1258  1  0.98020700  0.11996100  0.03354200  1
  C  1259  1  0.98307200  0.11084400  0.01548200  1
  C  1260  1  0.00392000  0.11275700  0.00700200  1
  C  1262  1  0.96012500  0.12000300  0.04354300  1
  C  1263  1  0.95757600  0.11245200  0.06214900  1
  C  1264  1  0.93661400  0.11419100  0.07044900  1
  C  1265  1  0.91850500  0.12278400  0.06071400  1
  C  1266  1  0.92226700  0.13021200  0.04244200  1
  C  1277  1  0.58986800  0.80006500  0.26581100  1
  C  1278  1  0.58001800  0.79614000  0.28320600  1
  C  1280  1  0.59160800  0.75868700  0.28332000  1
  C  1281  1  0.60163900  0.76138500  0.26562100  1
  C  1282  1  0.60043400  0.78225800  0.25712900  1
  C  1284  1  0.59158000  0.73878400  0.29348500  1
  C  1285  1  0.60083500  0.73627000  0.31150600  1
  C  1286  1  0.59973500  0.71534600  0.31991700  1
  C  1287  1  0.59000200  0.69731300  0.31087000  1
  C  1288  1  0.58082300  0.70108800  0.29318500  1
  C  1299  1  0.35041500  0.69744400  0.76583700  1
  C  1300  1  0.36024400  0.70137900  0.78323900  1
  C  1302  1  0.34866400  0.73883500  0.78332800  1
  C  1303  1  0.33865200  0.73612700  0.76562000  1
  C  1304  1  0.33987600  0.71525100  0.75713300  1
  C  1306  1  0.34869400  0.75874600  0.79348000  1
  C  1307  1  0.33944400  0.76127800  0.81150300  1
  C  1308  1  0.34055000  0.78221100  0.81990200  1
  C  1309  1  0.35028400  0.80023500  0.81084000  1
  C  1310  1  0.35946000  0.79644100  0.79315800  1
  C  1321  1  0.02095800  0.62988400  0.56139600  1
  C  1322  1  0.01727900  0.63962900  0.54392500  1
  C  1324  1  0.97998500  0.62773300  0.54342300  1
  C  1325  1  0.98243000  0.61782100  0.56120200  1
  C  1326  1  0.00313900  0.61922800  0.56994800  1
  C  1328  1  0.96028800  0.62771800  0.53303800  1
  C  1329  1  0.95813300  0.61880200  0.51485700  1
  C  1330  1  0.93735900  0.62001200  0.50620000  1
  C  1331  1  0.91919800  0.62954000  0.51519600  1
  C  1332  1  0.92263000  0.63842200  0.53303800  1
  C  1343  1  0.91934100  0.86770700  0.06137400  1
  C  1344  1  0.92300900  0.85797100  0.04389700  1
  C  1346  1  0.96031400  0.86983000  0.04340000  1
  C  1347  1  0.95787700  0.87974100  0.06117900  1
  C  1348  1  0.93717200  0.87833500  0.06993400  1
  C  1350  1  0.98001100  0.86983000  0.03301300  1
  C  1351  1  0.98216800  0.87873600  0.01482900  1
  C  1352  1  0.00293900  0.87750100  0.00616700  1
  C  1353  1  0.02110000  0.86798500  0.01517100  1
  C  1354  1  0.01766800  0.85912400  0.03302000  1
  C  1365  1  0.34783500  0.19715100  0.81014600  1
  C  1366  1  0.35737100  0.20139500  0.79268200  1
  C  1368  1  0.34540800  0.23871500  0.79306100  1
  C  1369  1  0.33562800  0.23566200  0.81082800  1
  C  1370  1  0.33718900  0.21469700  0.81912000  1
  C  1372  1  0.34542600  0.25881400  0.78318100  1
  C  1373  1  0.33682700  0.26158700  0.76494700  1
  C  1374  1  0.33820300  0.28263600  0.75678400  1
  C  1375  1  0.34755700  0.30053100  0.76629400  1
  C  1376  1  0.35607300  0.29651200  0.78417700  1
  C  1387  1  0.59247800  0.30040200  0.31010800  1
  C  1388  1  0.58295900  0.29614800  0.29263900  1
  C  1390  1  0.59490800  0.25882300  0.29304600  1
  C  1391  1  0.60467300  0.26188900  0.31081800  1
  C  1392  1  0.60309700  0.28285600  0.31910300  1
  C  1394  1  0.59489100  0.23871600  0.28317800  1
  C  1395  1  0.60348600  0.23592500  0.26494400  1
  C  1396  1  0.60210100  0.21486900  0.25679400  1
  C  1397  1  0.59274400  0.19698400  0.26631500  1
  C  1398  1  0.58423000  0.20102100  0.28419600  1
  C  1409  1  0.56440900  0.85695300  0.11515500  1
  C  1410  1  0.56014500  0.83634200  0.12306700  1
  C  1412  1  0.56352400  0.85082900  0.15384900  1
  C  1413  1  0.56711100  0.87222600  0.14677900  1
  C  1414  1  0.56752500  0.87480800  0.12729300  1
  C  1416  1  0.56551800  0.84598100  0.17293700  1
  C  1417  1  0.54796600  0.84011000  0.18487600  1
  C  1418  1  0.55235700  0.83878000  0.20420300  1
  C  1419  1  0.57330500  0.84348400  0.21137400  1
  C  1420  1  0.59010500  0.84827900  0.19859900  1
  C  1431  1  0.37593500  0.64065800  0.61518100  1
  C  1432  1  0.38001400  0.66129300  0.62311700  1
  C  1434  1  0.37680500  0.64672100  0.65388000  1
  C  1435  1  0.37338400  0.62530600  0.64678600  1
  C  1436  1  0.37297300  0.62275700  0.62729700  1
  C  1438  1  0.37478800  0.65150900  0.67297700  1
  C  1439  1  0.39228600  0.65758400  0.68490300  1
  C  1440  1  0.38789000  0.65890900  0.70422900  1
  C  1441  1  0.36699300  0.65400900  0.71141600  1
  C  1442  1  0.35023000  0.64905600  0.69864900  1
  C  1453  1  0.07748000  0.15602900  0.86726300  1
  C  1454  1  0.05692500  0.15840800  0.87580600  1
  C  1456  1  0.07300800  0.15666300  0.90614900  1
  C  1457  1  0.09431300  0.15498100  0.89837500  1
  C  1458  1  0.09606200  0.15460200  0.87881600  1
  C  1460  1  0.06907100  0.15403700  0.92536700  1
  C  1461  1  0.05958600  0.16993300  0.93731600  1
  C  1462  1  0.05832900  0.16495000  0.95655100  1
  C  1463  1  0.06653100  0.14508400  0.96370400  1
  C  1464  1  0.07487200  0.12977800  0.95087900  1
  C  1475  1  0.86290000  0.34153400  0.36720200  1
  C  1476  1  0.88344600  0.33913700  0.37575600  1
  C  1478  1  0.86734400  0.34090500  0.40609300  1
  C  1479  1  0.84604400  0.34258800  0.39830400  1
  C  1480  1  0.84431100  0.34298000  0.37874400  1
  C  1482  1  0.87125700  0.34352500  0.42531500  1
  C  1483  1  0.88073800  0.32763300  0.43726900  1
  C  1484  1  0.88196700  0.33261100  0.45650600  1
  C  1485  1  0.87372900  0.35246400  0.46365900  1
  C  1486  1  0.86539700  0.36776900  0.45082900  1
  C  1497  1  0.56387600  0.64014200  0.46119400  1
  C  1498  1  0.55911000  0.66059300  0.45318600  1
  C  1500  1  0.56288000  0.64601400  0.42247000  1
  C  1501  1  0.56697300  0.62475100  0.42963500  1
  C  1502  1  0.56741700  0.62229300  0.44913200  1
  C  1504  1  0.56489200  0.65082900  0.40338000  1
  C  1505  1  0.54731000  0.65629600  0.39133100  1
  C  1506  1  0.55183800  0.65775400  0.37203400  1
  C  1507  1  0.57295900  0.65356600  0.36500200  1
  C  1508  1  0.58974900  0.64911500  0.37787500  1
  C  1519  1  0.37645600  0.85727700  0.96116700  1
  C  1520  1  0.38105300  0.83680500  0.95312900  1
  C  1522  1  0.37743400  0.85148800  0.92243800  1
  C  1523  1  0.37349800  0.87276600  0.92963400  1
  C  1524  1  0.37305800  0.87518200  0.94913600  1
  C  1526  1  0.37539400  0.84674100  0.90333600  1
  C  1527  1  0.39291400  0.84103200  0.89130300  1
  C  1528  1  0.38838000  0.83958300  0.87200500  1
  C  1529  1  0.36731400  0.84401100  0.86495500  1
  C  1530  1  0.35056800  0.84865400  0.87782000  1
  C  1541  1  0.07780500  0.34101700  0.70907700  1
  C  1542  1  0.05738000  0.33821800  0.70040200  1
  C  1544  1  0.07368900  0.34026900  0.67016000  1
  C  1545  1  0.09488800  0.34236100  0.67807100  1
  C  1546  1  0.09645900  0.34278400  0.69764200  1
  C  1548  1  0.06984500  0.34291200  0.65092800  1
  C  1549  1  0.06051100  0.32700900  0.63889900  1
  C  1550  1  0.05917600  0.33212000  0.61969300  1
  C  1551  1  0.06715800  0.35212500  0.61264200  1
  C  1552  1  0.07537700  0.36741100  0.62554000  1
  C  1563  1  0.86259800  0.15649500  0.20912800  1
  C  1564  1  0.88301300  0.15931600  0.20044100  1
  C  1566  1  0.86668000  0.15726100  0.17020600  1
  C  1567  1  0.84548600  0.15516900  0.17813300  1
  C  1568  1  0.84393600  0.15472000  0.19770500  1
  C  1570  1  0.87049600  0.15463300  0.15096800  1
  C  1571  1  0.87983900  0.17052900  0.13894000  1
  C  1572  1  0.88114400  0.16543000  0.11972800  1
  C  1573  1  0.87311000  0.14544900  0.11267100  1
  C  1574  1  0.86488900  0.13016300  0.12556900  1
  C  1585  1  0.37687500  0.14203000  0.95972300  1
  C  1586  1  0.37926300  0.16251500  0.95105300  1
  C  1588  1  0.37776500  0.14616300  0.92081600  1
  C  1589  1  0.37610800  0.12492100  0.92870700  1
  C  1590  1  0.37562900  0.12333900  0.94827500  1
  C  1592  1  0.37534900  0.14990300  0.90156200  1
  C  1593  1  0.39161600  0.15871500  0.88961500  1
  C  1594  1  0.38687600  0.15969000  0.87032900  1
  C  1595  1  0.36686500  0.15189700  0.86312700  1
  C  1596  1  0.35120300  0.14424600  0.87595800  1
  C  1607  1  0.56340100  0.35539400  0.45969100  1
  C  1608  1  0.56115300  0.33490400  0.45100600  1
  C  1610  1  0.56252100  0.35129700  0.42078600  1
  C  1611  1  0.56405900  0.37254200  0.42868800  1
  C  1612  1  0.56453500  0.37410600  0.44825800  1
  C  1614  1  0.56494000  0.34759500  0.40152600  1
  C  1615  1  0.54871300  0.33869800  0.38958400  1
  C  1616  1  0.55345300  0.33773900  0.37029800  1
  C  1617  1  0.57342000  0.34563300  0.36308600  1
  C  1618  1  0.58904900  0.35335800  0.37591400  1
  C  1629  1  0.86307900  0.84379100  0.21184300  1
  C  1630  1  0.88298900  0.83806300  0.20333100  1
  C  1632  1  0.86758900  0.84254100  0.17292600  1
  C  1633  1  0.84679700  0.84762800  0.18064100  1
  C  1634  1  0.84506200  0.84827900  0.20019300  1
  C  1636  1  0.87179500  0.84390800  0.15364100  1
  C  1637  1  0.87876700  0.82635500  0.14211100  1
  C  1638  1  0.88024200  0.83027100  0.12271000  1
  C  1639  1  0.87457900  0.85072100  0.11502100  1
  C  1640  1  0.86871700  0.86759900  0.12738900  1
  C  1651  1  0.07717300  0.65378300  0.71186800  1
  C  1652  1  0.05727100  0.65954200  0.70335500  1
  C  1654  1  0.07266100  0.65504600  0.67294900  1
  C  1655  1  0.09344900  0.64993800  0.68066500  1
  C  1656  1  0.09518000  0.64926200  0.70021600  1
  C  1658  1  0.06845200  0.65367600  0.65366500  1
  C  1659  1  0.06151500  0.67123700  0.64212600  1
  C  1660  1  0.06006000  0.66732200  0.62272500  1
  C  1661  1  0.06572600  0.64687000  0.61504000  1
  C  1662  1  0.07155800  0.62998600  0.62741400  1
  C  1673  1  0.37723300  0.35572900  0.61706400  1
  C  1674  1  0.38003000  0.33536900  0.62585600  1
  C  1676  1  0.37825500  0.35193200  0.65600000  1
  C  1677  1  0.37620300  0.37307600  0.64798200  1
  C  1678  1  0.37567400  0.37448800  0.62840400  1
  C  1680  1  0.37582900  0.34828400  0.67526800  1
  C  1681  1  0.39208600  0.33957300  0.68728100  1
  C  1682  1  0.38722800  0.33852300  0.70654500  1
  C  1683  1  0.36711400  0.34615000  0.71366200  1
  C  1684  1  0.35148300  0.35372200  0.70076900  1
  C  1695  1  0.56302600  0.14185700  0.11709600  1
  C  1696  1  0.56036900  0.16223300  0.12589500  1
  C  1698  1  0.56201500  0.14563900  0.15602700  1
  C  1699  1  0.56395000  0.12448700  0.14800700  1
  C  1700  1  0.56447600  0.12308300  0.12842800  1
  C  1702  1  0.56444500  0.14926100  0.17529900  1
  C  1703  1  0.54822000  0.15804200  0.18730800  1
  C  1704  1  0.55307800  0.15908200  0.20657100  1
  C  1705  1  0.57316200  0.15137800  0.21369400  1
  C  1706  1  0.58876600  0.14374300  0.20080400  1
  C  1717  1  0.86273700  0.65418200  0.36496600  1
  C  1718  1  0.88251900  0.66023100  0.37353700  1
  C  1720  1  0.86709200  0.65547400  0.40389900  1
  C  1721  1  0.84641100  0.65006500  0.39612500  1
  C  1722  1  0.84475100  0.64941000  0.37656800  1
  C  1724  1  0.87128800  0.65406100  0.42318100  1
  C  1725  1  0.87801100  0.67163300  0.43479900  1
  C  1726  1  0.87958000  0.66759800  0.45417800  1
  C  1727  1  0.87425100  0.64700300  0.46175700  1
  C  1728  1  0.86861100  0.63013300  0.44930700  1
  C  1739  1  0.07746900  0.84334700  0.86494800  1
  C  1740  1  0.05769500  0.83728900  0.87352600  1
  C  1742  1  0.07313800  0.84203600  0.90388400  1
  C  1743  1  0.09381700  0.84744100  0.89610100  1
  C  1744  1  0.09545900  0.84812600  0.87654400  1
  C  1746  1  0.06895500  0.84344800  0.92316900  1
  C  1747  1  0.06223700  0.82587800  0.93479000  1
  C  1748  1  0.06069700  0.82991200  0.95417200  1
  C  1749  1  0.06606400  0.85049500  0.96175100  1
  C  1750  1  0.07170500  0.86736200  0.94929700  1
  C  1761  1  0.77838000  0.89126600  0.06565000  1
  C  1762  1  0.76795300  0.89559000  0.08271500  1
  C  1764  1  0.73224500  0.89060100  0.06933000  1
  C  1765  1  0.74175700  0.88592500  0.05169900  1
  C  1766  1  0.76483600  0.88603700  0.05038400  1
  C  1768  1  0.70930100  0.89283300  0.07207500  1
  C  1769  1  0.69904200  0.91268500  0.07762300  1
  C  1770  1  0.67593600  0.91375800  0.07668500  1
  C  1771  1  0.66316300  0.89617100  0.07001600  1
  C  1772  1  0.67425900  0.87666000  0.06566100  1
  C  1783  1  0.16191100  0.60625900  0.56567800  1
  C  1784  1  0.17234000  0.60192600  0.58274100  1
  C  1786  1  0.20804400  0.60692100  0.56935900  1
  C  1787  1  0.19853400  0.61158200  0.55172400  1
  C  1788  1  0.17545500  0.61149500  0.55041200  1
  C  1790  1  0.23099100  0.60472000  0.57210700  1
  C  1791  1  0.24126200  0.58489600  0.57772000  1
  C  1792  1  0.26437500  0.58385300  0.57684400  1
  C  1793  1  0.27715000  0.60142100  0.57014800  1
  C  1794  1  0.26603600  0.62089800  0.56570700  1
  C  1805  1  0.11045800  0.94182500  0.81495300  1
  C  1806  1  0.11488800  0.95178700  0.83219800  1
  C  1808  1  0.10890000  0.98774400  0.81968500  1
  C  1809  1  0.10395700  0.97869800  0.80192900  1
  C  1810  1  0.10446400  0.95567900  0.80010200  1
  C  1812  1  0.11107400  0.01058800  0.82286600  1
  C  1813  1  0.13103400  0.02075300  0.82825600  1
  C  1814  1  0.13199900  0.04387300  0.82775200  1
  C  1815  1  0.11424300  0.05672600  0.82152900  1
  C  1816  1  0.09463800  0.04569900  0.81736800  1
  C  1827  1  0.82986400  0.55570300  0.31500200  1
  C  1828  1  0.82537000  0.54571500  0.33222600  1
  C  1830  1  0.83132900  0.50976100  0.31970100  1
  C  1831  1  0.83629600  0.51882100  0.30195400  1
  C  1832  1  0.83585400  0.54184400  0.30015100  1
  C  1834  1  0.82915700  0.48691600  0.32287500  1
  C  1835  1  0.80919100  0.47673600  0.32823000  1
  C  1836  1  0.80822400  0.45361600  0.32767900  1
  C  1837  1  0.82599100  0.44080600  0.32143200  1
  C  1838  1  0.84562300  0.45181900  0.31733900  1
  C  1849  1  0.77828000  0.60559100  0.51076400  1
  C  1850  1  0.76786000  0.60172300  0.49361600  1
  C  1852  1  0.73216500  0.60673600  0.50700500  1
  C  1853  1  0.74166400  0.61089900  0.52473300  1
  C  1854  1  0.76473500  0.61056300  0.52609200  1
  C  1856  1  0.70921100  0.60484100  0.50417800  1
  C  1857  1  0.69872700  0.58518400  0.49843900  1
  C  1858  1  0.67561400  0.58434200  0.49943100  1
  C  1859  1  0.66306100  0.60198200  0.50629600  1
  C  1860  1  0.67436600  0.62131900  0.51080500  1
  C  1871  1  0.16201900  0.89195800  0.01075800  1
  C  1872  1  0.17244100  0.89582000  0.99360900  1
  C  1874  1  0.20812900  0.89080600  0.00699800  1
  C  1875  1  0.19863400  0.88667400  0.02473300  1
  C  1876  1  0.17556100  0.88699200  0.02608800  1
  C  1878  1  0.23108900  0.89266300  0.00416900  1
  C  1879  1  0.24158700  0.91228300  0.99835600  1
  C  1880  1  0.26470700  0.91309100  0.99928100  1
  C  1881  1  0.27725800  0.89547000  0.00617900  1
  C  1882  1  0.26593000  0.87617300  0.01078500  1
  C  1893  1  0.11105600  0.55556600  0.76164400  1
  C  1894  1  0.11499000  0.54560100  0.74431000  1
  C  1896  1  0.10897700  0.50967500  0.75686200  1
  C  1897  1  0.10459700  0.51871500  0.77472600  1
  C  1898  1  0.10535200  0.54172300  0.77658500  1
  C  1900  1  0.11077500  0.48681900  0.75359300  1
  C  1901  1  0.13050800  0.47640300  0.74794800  1
  C  1902  1  0.13120200  0.45327300  0.74847300  1
  C  1903  1  0.11338800  0.44066200  0.75491800  1
  C  1904  1  0.09399100  0.45192700  0.75930800  1
  C  1915  1  0.82922600  0.94197900  0.26159300  1
  C  1916  1  0.82524900  0.95196500  0.24427400  1
  C  1918  1  0.83121800  0.98789300  0.25683300  1
  C  1919  1  0.83559800  0.97884600  0.27469400  1
  C  1920  1  0.83490500  0.95583200  0.27653700  1
  C  1922  1  0.82943500  0.01074800  0.25356200  1
  C  1923  1  0.80970800  0.02118800  0.24793000  1
  C  1924  1  0.80901900  0.04431500  0.24849600  1
  C  1925  1  0.82684200  0.05687800  0.25498100  1
  C  1926  1  0.84625800  0.04562100  0.25932400  1
  C  1937  1  0.16410900  0.10789400  0.01283700  1
  C  1938  1  0.17382100  0.10306500  0.99555900  1
  C  1940  1  0.21008700  0.10784400  0.00784900  1
  C  1941  1  0.20132100  0.11318300  0.02562600  1
  C  1942  1  0.17830100  0.11337400  0.02760500  1
  C  1944  1  0.23286400  0.10502200  0.00453800  1
  C  1945  1  0.24253300  0.08476000  0.99929500  1
  C  1946  1  0.26565100  0.08327900  0.99955600  1
  C  1947  1  0.27903600  0.10088100  0.00526100  1
  C  1948  1  0.26843000  0.12076200  0.00935000  1
  C  1959  1  0.77617900  0.38971900  0.51280900  1
  C  1960  1  0.76646100  0.39457900  0.49554200  1
  C  1962  1  0.73020300  0.38976500  0.50782800  1
  C  1963  1  0.73897300  0.38442100  0.52560200  1
  C  1964  1  0.76199300  0.38420900  0.52757500  1
  C  1966  1  0.70742100  0.39255500  0.50452000  1
  C  1967  1  0.69773600  0.41279800  0.49924200  1
  C  1968  1  0.67461500  0.41424500  0.49944200  1
  C  1969  1  0.66123200  0.39664100  0.50514400  1
  C  1970  1  0.67186000  0.37678800  0.50929600  1
  C  1981  1  0.16425100  0.39056500  0.56367200  1
  C  1982  1  0.17396100  0.39493400  0.58104200  1
  C  1984  1  0.21020500  0.39012300  0.56873400  1
  C  1985  1  0.20144200  0.38528000  0.55085600  1
  C  1986  1  0.17842900  0.38530400  0.54883700  1
  C  1988  1  0.23299600  0.39262900  0.57212500  1
  C  1989  1  0.24287200  0.41272200  0.57754800  1
  C  1990  1  0.26600300  0.41396500  0.57731300  1
  C  1991  1  0.27919900  0.39628100  0.57146200  1
  C  1992  1  0.26839700  0.37654800  0.56724000  1
  C  2003  1  0.77601900  0.10698100  0.06371200  1
  C  2004  1  0.76633800  0.10262000  0.08109400  1
  C  2006  1  0.73007200  0.10737000  0.06881600  1
  C  2007  1  0.73880700  0.11218700  0.05092300  1
  C  2008  1  0.76182000  0.11221800  0.04888700  1
  C  2010  1  0.70728500  0.10487600  0.07224400  1
  C  2011  1  0.69740900  0.08479500  0.07768700  1
  C  2012  1  0.67427800  0.08356000  0.07745400  1
  C  2013  1  0.66107700  0.10123800  0.07160600  1
  C  2014  1  0.67188800  0.12096200  0.06735400  1
  C  2025  1  0.61582800  0.44168300  0.31453400  1
  C  2026  1  0.61964400  0.45184500  0.33180800  1
  C  2028  1  0.61482800  0.48779500  0.31880600  1
  C  2029  1  0.61071500  0.47855600  0.30096700  1
  C  2030  1  0.61101000  0.45549700  0.29934400  1
  C  2032  1  0.61655800  0.51074100  0.32193300  1
  C  2033  1  0.63601600  0.52130200  0.32804700  1
  C  2034  1  0.63662000  0.54445900  0.32752300  1
  C  2035  1  0.61892900  0.55708000  0.32082500  1
  C  2036  1  0.59981600  0.54561300  0.31587000  1
  C  2047  1  0.32446900  0.05589000  0.81455600  1
  C  2048  1  0.32057600  0.04567600  0.83179700  1
  C  2050  1  0.32542100  0.00975800  0.81874800  1
  C  2051  1  0.32955800  0.01903800  0.80093000  1
  C  2052  1  0.32929400  0.04210200  0.79934900  1
  C  2054  1  0.32370800  0.98680300  0.82183300  1
  C  2055  1  0.30425700  0.97621800  0.82794800  1
  C  2056  1  0.30367400  0.95305900  0.82743000  1
  C  2057  1  0.32136800  0.94048100  0.82068200  1
  C  2058  1  0.34048500  0.95194900  0.81575000  1
  C  2069  1  0.61646000  0.05570100  0.26205100  1
  C  2070  1  0.61986300  0.04553500  0.24471400  1
  C  2072  1  0.61501800  0.00961200  0.25774100  1
  C  2073  1  0.61135700  0.01884800  0.27565000  1
  C  2074  1  0.61185000  0.04190100  0.27729600  1
  C  2076  1  0.61645500  0.98666000  0.25456600  1
  C  2077  1  0.63574200  0.97590400  0.24830100  1
  C  2078  1  0.63612900  0.95274200  0.24882700  1
  C  2079  1  0.61838000  0.94031800  0.25568200  1
  C  2080  1  0.59940800  0.95196200  0.26072600  1
  C  2091  1  0.32383200  0.44180500  0.76200800  1
  C  2092  1  0.32040900  0.45199100  0.74468200  1
  C  2094  1  0.32522500  0.48790800  0.75772600  1
  C  2095  1  0.32885500  0.47865900  0.77563600  1
  C  2096  1  0.32840400  0.45560300  0.77726300  1
  C  2098  1  0.32381400  0.51086300  0.75455200  1
  C  2099  1  0.30454600  0.52164500  0.74827700  1
  C  2100  1  0.30417200  0.54480700  0.74884300  1
  C  2101  1  0.32191500  0.55717900  0.75576200  1
  C  2102  1  0.34089100  0.54553500  0.76078600  1
  C  2113  1  0.53340200  0.88131900  0.72325800  1
  C  2114  1  0.53518200  0.86866200  0.73975500  1
  C  2115  1  0.51596000  0.86075400  0.74856700  1
  C  2116  1  0.49567400  0.86283700  0.73944800  1
  C  2117  1  0.49364900  0.87387300  0.72231000  1
  C  2118  1  0.51245400  0.88452100  0.71491800  1
  C  2119  1  0.55616600  0.86504300  0.74740400  1
  C  2120  1  0.51086200  0.89946000  0.70000800  1
  C  2122  1  0.55237600  0.89205400  0.71607600  1
  C  2123  1  0.57350300  0.88819100  0.72389000  1
  C  2124  1  0.59211500  0.89950900  0.71687500  1
  C  2125  1  0.58874800  0.91612100  0.70354500  1
  C  2126  1  0.56786800  0.92126300  0.69666900  1
  C  2127  1  0.54983100  0.90814900  0.70199200  1
  C  2128  1  0.57497700  0.87396100  0.73927600  1
  C  2130  1  0.52897700  0.91154100  0.69411700  1
  C  2135  1  0.30893300  0.61627700  0.22333400  1
  C  2136  1  0.30715600  0.62896700  0.23981300  1
  C  2137  1  0.32639100  0.63689200  0.24858400  1
  C  2138  1  0.34668800  0.63475100  0.23950200  1
  C  2139  1  0.34869500  0.62370800  0.22236500  1
  C  2140  1  0.32987500  0.61306700  0.21498500  1
  C  2141  1  0.28618000  0.63259500  0.24747300  1
  C  2142  1  0.33145600  0.59810700  0.20008800  1
  C  2144  1  0.28995100  0.60553300  0.21616800  1
  C  2145  1  0.26883000  0.60941000  0.22398800  1
  C  2146  1  0.25020900  0.59809800  0.21698300  1
  C  2147  1  0.25357200  0.58145900  0.20367800  1
  C  2148  1  0.27443900  0.57632700  0.19677000  1
  C  2149  1  0.29248500  0.58943200  0.20208800  1
  C  2150  1  0.26737000  0.62363700  0.23937700  1
  C  2152  1  0.31333700  0.58602400  0.19421100  1
  C  2157  1  0.05110500  0.13754700  0.47493100  1
  C  2158  1  0.03901400  0.13596100  0.49175100  1
  C  2159  1  0.03145000  0.15530900  0.50058200  1
  C  2160  1  0.03323800  0.17548600  0.49126100  1
  C  2161  1  0.04365800  0.17726500  0.47382900  1
  C  2162  1  0.05410100  0.15839000  0.46636800  1
  C  2163  1  0.03562600  0.11506600  0.49964200  1
  C  2164  1  0.06864900  0.15982600  0.45116300  1
  C  2166  1  0.06149200  0.11848200  0.46757500  1
  C  2167  1  0.05770700  0.09743100  0.47555200  1
  C  2168  1  0.06856600  0.07870300  0.46826200  1
  C  2169  1  0.08470000  0.08183000  0.45447700  1
  C  2170  1  0.08985300  0.10264600  0.44750600  1
  C  2171  1  0.07715900  0.12084500  0.45311800  1
  C  2172  1  0.04407600  0.09614200  0.49133900  1
  C  2174  1  0.08052300  0.14163600  0.44513400  1
  C  2179  1  0.79128900  0.36000900  0.97485200  1
  C  2180  1  0.80337600  0.36161700  0.99167099  1
  C  2181  1  0.81097900  0.34229800  0.00052100  1
  C  2182  1  0.80918600  0.32211000  0.99120699  1
  C  2183  1  0.79877400  0.32030300  0.97377200  1
  C  2184  1  0.78830800  0.33915900  0.96630200  1
  C  2185  1  0.80673600  0.38251700  0.99955998  1
  C  2186  1  0.77376900  0.33770100  0.95109100  1
  C  2188  1  0.78088300  0.37906000  0.96748800  1
  C  2189  1  0.78462000  0.40011400  0.97546700  1
  C  2190  1  0.77374900  0.41882000  0.96815400  1
  C  2191  1  0.75761200  0.41565000  0.95437800  1
  C  2192  1  0.75248800  0.39481900  0.94738100  1
  C  2193  1  0.76523800  0.37667900  0.95301800  1
  C  2194  1  0.79821500  0.40141900  0.99127499  1
  C  2196  1  0.76189700  0.35588100  0.94504300  1
  C  2201  1  0.53325500  0.61650300  0.15906300  1
  C  2202  1  0.53486000  0.62889400  0.14240700  1
  C  2203  1  0.51552800  0.63649800  0.13356500  1
  C  2204  1  0.49530000  0.63441100  0.14277900  1
  C  2205  1  0.49347100  0.62367500  0.16006700  1
  C  2206  1  0.51238400  0.61331000  0.16753600  1
  C  2207  1  0.55578700  0.63255900  0.13465900  1
  C  2208  1  0.51097300  0.59866600  0.18266900  1
  C  2210  1  0.55233300  0.60600500  0.16629700  1
  C  2211  1  0.57338700  0.60986400  0.15834500  1
  C  2212  1  0.59209100  0.59873400  0.16539600  1
  C  2213  1  0.58889200  0.58227700  0.17889100  1
  C  2214  1  0.56807800  0.57711000  0.18590000  1
  C  2215  1  0.54996000  0.59010700  0.18056200  1
  C  2216  1  0.57470100  0.62389300  0.14281900  1
  C  2218  1  0.52918400  0.58675200  0.18859600  1
  C  2223  1  0.30907800  0.88091300  0.65899800  1
  C  2224  1  0.30747400  0.86849600  0.64235600  1
  C  2225  1  0.32681700  0.86087600  0.63355000  1
  C  2226  1  0.34705600  0.86301200  0.64273100  1
  C  2227  1  0.34887000  0.87373800  0.66002300  1
  C  2228  1  0.32994600  0.88410200  0.66748000  1
  C  2229  1  0.28655300  0.86483200  0.63459600  1
  C  2230  1  0.33135000  0.89875600  0.68260800  1
  C  2232  1  0.28999800  0.89142400  0.66621700  1
  C  2233  1  0.26894800  0.88756400  0.65825800  1
  C  2234  1  0.25024400  0.89869800  0.66529600  1
  C  2235  1  0.25344300  0.91517600  0.67877100  1
  C  2236  1  0.27424500  0.92032200  0.68581400  1
  C  2237  1  0.29236600  0.90732400  0.68048200  1
  C  2238  1  0.26764300  0.87354400  0.64272500  1
  C  2240  1  0.31313700  0.91068000  0.68852100  1
  C  2245  1  0.05066200  0.35978800  0.40738300  1
  C  2246  1  0.03883300  0.36123400  0.39041800  1
  C  2247  1  0.03157300  0.34179900  0.38153900  1
  C  2248  1  0.03338200  0.32165900  0.39091700  1
  C  2249  1  0.04351500  0.32002900  0.40847800  1
  C  2250  1  0.05367000  0.33900000  0.41603500  1
  C  2251  1  0.03539200  0.38208900  0.38246000  1
  C  2252  1  0.06794100  0.33771600  0.43144000  1
  C  2254  1  0.06079100  0.37894700  0.41481700  1
  C  2255  1  0.05698800  0.39994100  0.40674600  1
  C  2256  1  0.06761700  0.41875200  0.41411300  1
  C  2257  1  0.08357100  0.41578000  0.42806800  1
  C  2258  1  0.08880200  0.39501200  0.43510800  1
  C  2259  1  0.07626200  0.37673200  0.42944400  1
  C  2260  1  0.04358800  0.40109500  0.39081100  1
  C  2262  1  0.07962000  0.35599800  0.43753700  1
  C  2267  1  0.79175000  0.13772400  0.90744700  1
  C  2268  1  0.80358000  0.13625800  0.89048500  1
  C  2269  1  0.81088000  0.15566600  0.88158900  1
  C  2270  1  0.80906600  0.17581800  0.89096300  1
  C  2271  1  0.79893700  0.17747300  0.90852400  1
  C  2272  1  0.78875400  0.15852000  0.91608600  1
  C  2273  1  0.80699000  0.11540000  0.88252600  1
  C  2274  1  0.77448400  0.15982600  0.93149000  1
  C  2276  1  0.78159500  0.11858100  0.91488200  1
  C  2277  1  0.78535000  0.09758400  0.90680700  1
  C  2278  1  0.77469600  0.07879800  0.91418800  1
  C  2279  1  0.75872400  0.08181500  0.92812400  1
  C  2280  1  0.75352600  0.10259800  0.93519000  1
  C  2281  1  0.76613600  0.12081600  0.92951300  1
  C  2282  1  0.79873700  0.09640900  0.89086700  1
  C  2284  1  0.76279700  0.14155500  0.93759900  1
  C  2289  1  0.30991900  0.11932100  0.65800400  1
  C  2290  1  0.30797900  0.13089100  0.64095000  1
  C  2291  1  0.32701300  0.13930300  0.63219200  1
  C  2292  1  0.34712600  0.13867400  0.64172800  1
  C  2293  1  0.34915100  0.12895700  0.65943700  1
  C  2294  1  0.33064100  0.11802800  0.66707100  1
  C  2295  1  0.28707400  0.13294200  0.63274800  1
  C  2296  1  0.33228400  0.10480400  0.68311000  1
  C  2298  1  0.29146000  0.10758500  0.66501300  1
  C  2299  1  0.27044700  0.10981500  0.65660400  1
  C  2300  1  0.25238400  0.09761500  0.66351300  1
  C  2301  1  0.25667100  0.08094400  0.67660200  1
  C  2302  1  0.27766300  0.07711100  0.68406100  1
  C  2303  1  0.29446400  0.09232800  0.67970000  1
  C  2304  1  0.26855600  0.12337900  0.64082500  1
  C  2306  1  0.31472000  0.09199500  0.68908800  1
  C  2311  1  0.53239000  0.37811600  0.15794100  1
  C  2312  1  0.53433400  0.36653400  0.14089100  1
  C  2313  1  0.51529400  0.35810000  0.13216800  1
  C  2314  1  0.49516400  0.35876300  0.14167100  1
  C  2315  1  0.49315300  0.36846900  0.15938500  1
  C  2316  1  0.51166900  0.37939100  0.16701800  1
  C  2317  1  0.55523500  0.36450100  0.13267600  1
  C  2318  1  0.51003100  0.39260800  0.18306300  1
  C  2320  1  0.55084500  0.38986700  0.16494000  1
  C  2321  1  0.57185400  0.38765700  0.15652100  1
  C  2322  1  0.58991100  0.39986900  0.16342100  1
  C  2323  1  0.58561800  0.41653900  0.17650900  1
  C  2324  1  0.56463600  0.42033000  0.18400300  1
  C  2325  1  0.54784200  0.40510600  0.17964200  1
  C  2326  1  0.57374100  0.37410900  0.14073100  1
  C  2328  1  0.52759700  0.40540900  0.18904700  1
  C  2333  1  0.78988800  0.86071200  0.90953000  1
  C  2334  1  0.80345500  0.86274600  0.89360500  1
  C  2335  1  0.81077300  0.84363500  0.88427600  1
  C  2336  1  0.80785900  0.82309700  0.89280500  1
  C  2337  1  0.79631700  0.82085800  0.90968200  1
  C  2338  1  0.78564500  0.83959700  0.91712700  1
  C  2339  1  0.80872800  0.88390500  0.88712500  1
  C  2340  1  0.76983800  0.83785400  0.93136300  1
  C  2342  1  0.77950000  0.87971900  0.91695200  1
  C  2343  1  0.78503300  0.90104000  0.91036600  1
  C  2344  1  0.77465500  0.91973600  0.91820500  1
  C  2345  1  0.75655500  0.91645700  0.93006900  1
  C  2346  1  0.74992600  0.89549000  0.93571100  1
  C  2347  1  0.76252700  0.87714700  0.93026700  1
  C  2348  1  0.80064200  0.90265600  0.89597500  1
  C  2350  1  0.75791200  0.85608200  0.93724400  1
  C  2355  1  0.05240600  0.63683600  0.40956100  1
  C  2356  1  0.03882500  0.63479600  0.39364700  1
  C  2357  1  0.03148800  0.65388300  0.38429900  1
  C  2358  1  0.03443400  0.67443000  0.39282300  1
  C  2359  1  0.04598000  0.67668400  0.40969500  1
  C  2360  1  0.05666500  0.65795300  0.41714100  1
  C  2361  1  0.03354400  0.61363800  0.38717800  1
  C  2362  1  0.07247900  0.65970400  0.43137200  1
  C  2364  1  0.06279000  0.61783100  0.41699300  1
  C  2365  1  0.05725800  0.59650800  0.41041000  1
  C  2366  1  0.06762400  0.57781500  0.41826400  1
  C  2367  1  0.08572700  0.58110000  0.43012800  1
  C  2368  1  0.09234900  0.60207200  0.43577600  1
  C  2369  1  0.07975800  0.62040700  0.43030700  1
  C  2370  1  0.04165800  0.59488900  0.39601400  1
  C  2372  1  0.08438800  0.64147300  0.43727100  1
  C  2377  1  0.31005800  0.37777800  0.22434000  1
  C  2378  1  0.30821700  0.36646800  0.24152900  1
  C  2379  1  0.32731600  0.35826600  0.25033600  1
  C  2380  1  0.34740200  0.35883700  0.24075100  1
  C  2381  1  0.34931100  0.36827200  0.22292600  1
  C  2382  1  0.33073300  0.37897200  0.21518800  1
  C  2383  1  0.28734000  0.36447300  0.24979300  1
  C  2384  1  0.33225800  0.39186900  0.19894900  1
  C  2386  1  0.29155400  0.38939000  0.21727000  1
  C  2387  1  0.27058900  0.38727400  0.22578100  1
  C  2388  1  0.25251300  0.39942400  0.21884700  1
  C  2389  1  0.25674100  0.41595600  0.20562200  1
  C  2390  1  0.27769200  0.41967100  0.19803200  1
  C  2391  1  0.29447600  0.40443900  0.20241600  1
  C  2392  1  0.26876300  0.37387500  0.24166800  1
  C  2394  1  0.31464800  0.40457300  0.19289600  1
  C  2399  1  0.53225600  0.11979600  0.72440800  1
  C  2400  1  0.53409000  0.13111400  0.74159400  1
  C  2401  1  0.51497900  0.13933400  0.75036100  1
  C  2402  1  0.49488400  0.13872100  0.74080300  1
  C  2403  1  0.49299400  0.12930700  0.72296800  1
  C  2404  1  0.51158700  0.11861700  0.71524000  1
  C  2405  1  0.55495900  0.13310000  0.74987800  1
  C  2406  1  0.51008000  0.10573400  0.69899000  1
  C  2408  1  0.55076200  0.10817600  0.71734900  1
  C  2409  1  0.57171800  0.11027500  0.72588000  1
  C  2410  1  0.58979800  0.09812600  0.71895100  1
  C  2411  1  0.58557200  0.08159400  0.70572600  1
  C  2412  1  0.56463600  0.07791300  0.69809800  1
  C  2413  1  0.54785400  0.09315000  0.70247700  1
  C  2414  1  0.57352400  0.12363900  0.74178700  1
  C  2416  1  0.52769800  0.09304600  0.69293200  1
  C  2421  1  0.79025400  0.63701300  0.97275400  1
  C  2422  1  0.80347700  0.63508700  0.98890100  1
  C  2423  1  0.81053200  0.65427100  0.99827999  1
  C  2424  1  0.80769100  0.67477300  0.98966200  1
  C  2425  1  0.79652300  0.67686900  0.97260000  1
  C  2426  1  0.78611700  0.65807400  0.96501100  1
  C  2427  1  0.80867000  0.61396100  0.99550999  1
  C  2428  1  0.77070000  0.65971800  0.95046100  1
  C  2430  1  0.78008000  0.61795400  0.96522400  1
  C  2431  1  0.78552300  0.59667300  0.97196000  1
  C  2432  1  0.77533300  0.57792500  0.96403000  1
  C  2433  1  0.75740600  0.58111900  0.95196000  1
  C  2434  1  0.75088600  0.60205700  0.94616500  1
  C  2435  1  0.76337100  0.62044400  0.95166200  1
  C  2436  1  0.80083800  0.59514800  0.98658200  1
  C  2438  1  0.75889500  0.64144900  0.94449600  1
  C  2443  1  0.05199500  0.86052400  0.47272800  1
  C  2444  1  0.03876300  0.86246400  0.48886600  1
  C  2445  1  0.03167100  0.84330900  0.49826200  1
  C  2446  1  0.03453000  0.82279500  0.48965200  1
  C  2447  1  0.04570400  0.82067800  0.47259400  1
  C  2448  1  0.05612800  0.83945800  0.46500100  1
  C  2449  1  0.03357800  0.88359600  0.49546500  1
  C  2450  1  0.07154600  0.83779500  0.45045200  1
  C  2452  1  0.06217900  0.87957300  0.46519200  1
  C  2453  1  0.05676800  0.90085900  0.47192600  1
  C  2454  1  0.06696600  0.91959000  0.46397700  1
  C  2455  1  0.08489100  0.91636400  0.45190900  1
  C  2456  1  0.09139700  0.89541400  0.44609800  1
  C  2457  1  0.07887700  0.87706700  0.45162100  1
  C  2458  1  0.04147700  0.90239800  0.48656500  1
  C  2460  1  0.08334100  0.85605800  0.44446400  1
  C  2465  1  0.03399900  0.37980300  0.22145400  1
  C  2466  1  0.03635200  0.36556800  0.23691800  1
  C  2467  1  0.01741300  0.35796000  0.24636500  1
  C  2468  1  0.99669697  0.36117300  0.23819500  1
  C  2469  1  0.99409897  0.37333900  0.22166500  1
  C  2470  1  0.01272200  0.38428500  0.21426500  1
  C  2471  1  0.05767400  0.35988700  0.24278000  1
  C  2472  1  0.01072300  0.40056300  0.20044700  1
  C  2474  1  0.05288000  0.39047500  0.21405400  1
  C  2475  1  0.07433500  0.38483000  0.22028400  1
  C  2476  1  0.09291000  0.39566300  0.21267800  1
  C  2477  1  0.08937700  0.41401100  0.20116200  1
  C  2478  1  0.06830500  0.42065100  0.19579500  1
  C  2479  1  0.05005300  0.40788200  0.20118800  1
  C  2480  1  0.07625600  0.36855500  0.23408400  1
  C  2482  1  0.02884700  0.41268100  0.19460300  1
  C  2487  1  0.80829700  0.11774800  0.72149100  1
  C  2488  1  0.80594400  0.13199500  0.73694700  1
  C  2489  1  0.82488200  0.13960500  0.74639400  1
  C  2490  1  0.84560100  0.13636800  0.73823600  1
  C  2491  1  0.84819900  0.12421200  0.72170200  1
  C  2492  1  0.82957500  0.11326800  0.71430000  1
  C  2493  1  0.78462300  0.13767900  0.74280800  1
  C  2494  1  0.83157400  0.09698800  0.70048400  1
  C  2496  1  0.78941700  0.10707700  0.71408900  1
  C  2497  1  0.76796200  0.11272500  0.72031600  1
  C  2498  1  0.74938500  0.10190000  0.71270400  1
  C  2499  1  0.75292200  0.08354200  0.70120100  1
  C  2500  1  0.77399100  0.07691200  0.69581600  1
  C  2501  1  0.79224400  0.08967400  0.70121900  1
  C  2502  1  0.76604500  0.12898500  0.73412900  1
  C  2504  1  0.81345100  0.08486700  0.69464000  1
  C  2509  1  0.55031000  0.63679800  0.97333600  1
  C  2510  1  0.53781300  0.63451600  0.98987700  1
  C  2511  1  0.52897000  0.65341200  0.99858399  1
  C  2512  1  0.52996500  0.67368800  0.98933300  1
  C  2513  1  0.54059900  0.67605500  0.97203800  1
  C  2514  1  0.55195700  0.65769000  0.96458400  1
  C  2515  1  0.53521000  0.61340200  0.99758299  1
  C  2516  1  0.56589300  0.65962800  0.94901800  1
  C  2518  1  0.56244800  0.61847400  0.96653600  1
  C  2519  1  0.55995600  0.59731700  0.97466300  1
  C  2520  1  0.57274400  0.57943500  0.96817500  1
  C  2521  1  0.58984100  0.58395400  0.95555900  1
  C  2522  1  0.59367700  0.60500400  0.94823400  1
  C  2523  1  0.57832200  0.62175600  0.95237000  1
  C  2524  1  0.54544800  0.59509200  0.98978200  1
  C  2526  1  0.57901300  0.64218300  0.94325600  1
  C  2531  1  0.29200200  0.86075900  0.47325800  1
  C  2532  1  0.30450100  0.86305500  0.48979500  1
  C  2533  1  0.31334200  0.84417900  0.49853100  1
  C  2534  1  0.31233100  0.82388800  0.48929100  1
  C  2535  1  0.30171600  0.82150400  0.47198700  1
  C  2536  1  0.29034800  0.83985700  0.46452600  1
  C  2537  1  0.30712000  0.88417900  0.49747700  1
  C  2538  1  0.27641700  0.83790600  0.44895700  1
  C  2540  1  0.27987500  0.87908100  0.46643800  1
  C  2541  1  0.28236700  0.90024300  0.47454900  1
  C  2542  1  0.26959300  0.91811900  0.46803700  1
  C  2543  1  0.25250900  0.91359300  0.45541200  1
  C  2544  1  0.24868100  0.89254200  0.44807000  1
  C  2545  1  0.26401600  0.87579200  0.45226300  1
  C  2546  1  0.29686700  0.90247900  0.48967300  1
  C  2548  1  0.26330600  0.85534900  0.44317700  1
  C  2553  1  0.03378400  0.11820400  0.66095300  1
  C  2554  1  0.03596700  0.13211900  0.64526000  1
  C  2555  1  0.01692200  0.13943400  0.63578500  1
  C  2556  1  0.99626497  0.13624600  0.64407900  1
  C  2557  1  0.99387097  0.12442700  0.66080300  1
  C  2558  1  0.01258500  0.11377900  0.66832300  1
  C  2559  1  0.05723300  0.13778400  0.63923700  1
  C  2560  1  0.01074400  0.09787200  0.68246300  1
  C  2562  1  0.05275200  0.10778000  0.66843800  1
  C  2563  1  0.07414400  0.11339100  0.66204000  1
  C  2564  1  0.09280600  0.10279800  0.66973900  1
  C  2565  1  0.08939900  0.08458400  0.68143700  1
  C  2566  1  0.06838500  0.07792800  0.68695200  1
  C  2567  1  0.05007400  0.09060600  0.68155000  1
  C  2568  1  0.07590800  0.12937400  0.64798200  1
  C  2570  1  0.02894700  0.08590100  0.68835700  1
  C  2575  1  0.80852500  0.37935900  0.16091500  1
  C  2576  1  0.80633000  0.36545200  0.14521700  1
  C  2577  1  0.82536900  0.35812700  0.13573800  1
  C  2578  1  0.84603000  0.36131500  0.14402400  1
  C  2579  1  0.84843400  0.37309800  0.16076300  1
  C  2580  1  0.82972900  0.38375300  0.16829200  1
  C  2581  1  0.78505700  0.35981200  0.13919100  1
  C  2582  1  0.83158400  0.39963800  0.18245100  1
  C  2584  1  0.78956400  0.38979000  0.16841000  1
  C  2585  1  0.76816400  0.38420100  0.16200800  1
  C  2586  1  0.74950800  0.39480600  0.16971000  1
  C  2587  1  0.75291700  0.41300800  0.18142000  1
  C  2588  1  0.77394200  0.41956600  0.18697400  1
  C  2589  1  0.79226400  0.40693400  0.18154500  1
  C  2590  1  0.76639100  0.36824100  0.14793200  1
  C  2592  1  0.81339200  0.41161400  0.18836100  1
  C  2597  1  0.54990800  0.86058000  0.90906600  1
  C  2598  1  0.53769400  0.86272000  0.89235800  1
  C  2599  1  0.52912500  0.84373200  0.88359300  1
  C  2600  1  0.53008900  0.82349700  0.89292100  1
  C  2601  1  0.54040300  0.82128900  0.91036700  1
  C  2602  1  0.55149000  0.83974800  0.91792700  1
  C  2603  1  0.53508900  0.88379900  0.88457600  1
  C  2604  1  0.56508000  0.83796900  0.93372500  1
  C  2606  1  0.56186000  0.87898200  0.91594300  1
  C  2607  1  0.55944000  0.90008000  0.90769700  1
  C  2608  1  0.57211500  0.91801000  0.91423100  1
  C  2609  1  0.58906300  0.91359700  0.92701200  1
  C  2610  1  0.59282900  0.89259900  0.93447900  1
  C  2611  1  0.57750700  0.87582800  0.93031000  1
  C  2612  1  0.54512800  0.90219000  0.89243100  1
  C  2614  1  0.57804400  0.85549000  0.93957400  1
  C  2619  1  0.29241300  0.63692100  0.40912500  1
  C  2620  1  0.30464100  0.63477100  0.39242600  1
  C  2621  1  0.31321100  0.65374200  0.38363900  1
  C  2622  1  0.31222300  0.67398800  0.39295800  1
  C  2623  1  0.30191700  0.67621100  0.41040800  1
  C  2624  1  0.29081300  0.65776100  0.41796700  1
  C  2625  1  0.30726700  0.61368400  0.38466500  1
  C  2626  1  0.27720900  0.65955100  0.43375700  1
  C  2628  1  0.28047500  0.61851800  0.41601600  1
  C  2629  1  0.28290100  0.59741600  0.40778100  1
  C  2630  1  0.27023800  0.57948600  0.41433400  1
  C  2631  1  0.25329100  0.58390400  0.42711600  1
  C  2632  1  0.24952500  0.60490300  0.43459600  1
  C  2633  1  0.26482600  0.62167400  0.43038200  1
  C  2634  1  0.29721300  0.59530100  0.39251600  1
  C  2636  1  0.26424800  0.64203200  0.43961100  1
  C  2641  1  0.80964300  0.62081900  0.15933000  1
  C  2642  1  0.80696100  0.63401100  0.14324800  1
  C  2643  1  0.82570600  0.64237700  0.13400800  1
  C  2644  1  0.84630600  0.64077700  0.14268300  1
  C  2645  1  0.84899600  0.62984000  0.15980600  1
  C  2646  1  0.83080400  0.61837200  0.16739400  1
  C  2647  1  0.78555700  0.63793300  0.13662500  1
  C  2648  1  0.83311100  0.60369400  0.18242600  1
  C  2650  1  0.79132200  0.60898500  0.16643400  1
  C  2651  1  0.76982700  0.61284200  0.15944800  1
  C  2652  1  0.75187400  0.60093400  0.16688400  1
  C  2653  1  0.75641500  0.58269800  0.17827700  1
  C  2654  1  0.77774600  0.57747300  0.18427400  1
  C  2655  1  0.79480900  0.59240200  0.17996000  1
  C  2656  1  0.76727900  0.62849400  0.14520600  1
  C  2658  1  0.81564000  0.59067300  0.18827900  1
  C  2663  1  0.03267700  0.87671900  0.65931000  1
  C  2664  1  0.03536800  0.86350800  0.64324000  1
  C  2665  1  0.01662800  0.85512800  0.63400200  1
  C  2666  1  0.99602097  0.85675000  0.64266300  1
  C  2667  1  0.99332697  0.86768400  0.65978500  1
  C  2668  1  0.01151300  0.87916300  0.66737200  1
  C  2669  1  0.05677400  0.85958600  0.63662200  1
  C  2670  1  0.00919800  0.89385100  0.68239500  1
  C  2672  1  0.05099400  0.88856200  0.66641400  1
  C  2673  1  0.07249300  0.88470600  0.65943300  1
  C  2674  1  0.09044600  0.89661500  0.66687200  1
  C  2675  1  0.08589800  0.91486500  0.67824800  1
  C  2676  1  0.06456500  0.92006900  0.68424000  1
  C  2677  1  0.04749700  0.90514600  0.67993500  1
  C  2678  1  0.07504100  0.86906700  0.64518100  1
  C  2680  1  0.02666400  0.90687500  0.68825000  1
  C  2685  1  0.29060100  0.36140600  0.41094200  1
  C  2686  1  0.30414500  0.36417300  0.39508000  1
  C  2687  1  0.31253600  0.34546700  0.38576400  1
  C  2688  1  0.31060500  0.32479300  0.39429200  1
  C  2689  1  0.29930800  0.32194500  0.41122900  1
  C  2690  1  0.28792300  0.34017700  0.41884600  1
  C  2691  1  0.30839900  0.38564800  0.38876300  1
  C  2692  1  0.27311000  0.33786300  0.43377400  1
  C  2694  1  0.27864700  0.37972400  0.41794500  1
  C  2695  1  0.28258300  0.40125900  0.41105800  1
  C  2696  1  0.27035700  0.41917700  0.41821700  1
  C  2697  1  0.25187500  0.41452100  0.42929300  1
  C  2698  1  0.24668000  0.39316200  0.43525100  1
  C  2699  1  0.26183300  0.37618100  0.43124400  1
  C  2700  1  0.29867700  0.40387700  0.39718900  1
  C  2702  1  0.26008700  0.35535600  0.43958200  1
  C  2707  1  0.55170800  0.13610300  0.91098100  1
  C  2708  1  0.53815600  0.13333600  0.89512300  1
  C  2709  1  0.52974700  0.15202900  0.88580200  1
  C  2710  1  0.53170700  0.17270900  0.89432400  1
  C  2711  1  0.54299700  0.17556400  0.91126400  1
  C  2712  1  0.55438900  0.15733300  0.91887800  1
  C  2713  1  0.53389000  0.11186100  0.88881400  1
  C  2714  1  0.56919300  0.15964900  0.93381100  1
  C  2716  1  0.56365100  0.11778500  0.91799100  1
  C  2717  1  0.55972200  0.09625000  0.91110300  1
  C  2718  1  0.57193200  0.07833000  0.91827800  1
  C  2719  1  0.59039600  0.08298600  0.92937700  1
  C  2720  1  0.59558600  0.10434400  0.93535700  1
  C  2721  1  0.58045000  0.12132100  0.93130500  1
  C  2722  1  0.54365900  0.09363800  0.89721000  1
  C  2724  1  0.58220500  0.14215300  0.93963000  1
  C  2729  1  0.80977800  0.87621600  0.72291000  1
  C  2730  1  0.80717900  0.86333400  0.73918500  1
  C  2731  1  0.82598200  0.85519700  0.74850100  1
  C  2732  1  0.84656300  0.85673400  0.73977700  1
  C  2733  1  0.84915200  0.86735400  0.72250600  1
  C  2734  1  0.83090100  0.87856500  0.71475900  1
  C  2735  1  0.78579400  0.85948500  0.74589000  1
  C  2736  1  0.83311500  0.89287700  0.69946400  1
  C  2738  1  0.79141200  0.88787100  0.71567800  1
  C  2739  1  0.76994700  0.88411700  0.72276700  1
  C  2740  1  0.75196400  0.89587900  0.71521500  1
  C  2741  1  0.75646700  0.91397200  0.70364700  1
  C  2742  1  0.77777700  0.91912900  0.69755700  1
  C  2743  1  0.79483200  0.90421400  0.70193500  1
  C  2744  1  0.76746900  0.86872900  0.73722300  1
  C  2746  1  0.81560400  0.90576900  0.69348900  1
  C  2751  1  0.03254300  0.62134900  0.22293900  1
  C  2752  1  0.03514600  0.63423400  0.23921200  1
  C  2753  1  0.01634500  0.64238700  0.24852000  1
  C  2754  1  0.99576197  0.64083800  0.23980200  1
  C  2755  1  0.99317197  0.63024000  0.22252200  1
  C  2756  1  0.01142000  0.61902200  0.21477900  1
  C  2757  1  0.05652900  0.63806700  0.24592400  1
  C  2758  1  0.00920300  0.60471900  0.19947600  1
  C  2760  1  0.05090200  0.60968200  0.21570900  1
  C  2761  1  0.07236800  0.61341800  0.22280100  1
  C  2762  1  0.09034700  0.60165800  0.21524400  1
  C  2763  1  0.08583300  0.58356500  0.20367900  1
  C  2764  1  0.06452400  0.57843400  0.19756700  1
  C  2765  1  0.04747800  0.59335500  0.20195000  1
  C  2766  1  0.07484600  0.62877700  0.23727900  1
  C  2768  1  0.02671000  0.59182700  0.19349300  1
  C  2773  1  0.29106600  0.13631400  0.47132100  1
  C  2774  1  0.30428500  0.13367600  0.48740000  1
  C  2775  1  0.31245600  0.15246700  0.49674400  1
  C  2776  1  0.31059000  0.17309400  0.48811600  1
  C  2777  1  0.29964400  0.17578400  0.47100300  1
  C  2778  1  0.28852200  0.15747400  0.46326100  1
  C  2779  1  0.30844900  0.11223800  0.49386200  1
  C  2780  1  0.27412400  0.15965200  0.44802600  1
  C  2782  1  0.27928100  0.11794200  0.46422700  1
  C  2783  1  0.28309100  0.09645800  0.47127400  1
  C  2784  1  0.27101000  0.07850000  0.46402000  1
  C  2785  1  0.25267500  0.08310000  0.45275100  1
  C  2786  1  0.24757200  0.10442300  0.44663500  1
  C  2787  1  0.26273100  0.12138400  0.45067200  1
  C  2788  1  0.29889300  0.09394400  0.48539600  1
  C  2790  1  0.26122400  0.14211100  0.44212700  1
  C  2795  1  0.55124100  0.36124700  0.97127400  1
  C  2796  1  0.53801400  0.36387900  0.98734800  1
  C  2797  1  0.52983700  0.34509700  0.99669999  1
  C  2798  1  0.53173300  0.32446800  0.98807300  1
  C  2799  1  0.54267100  0.32177700  0.97095500  1
  C  2800  1  0.55379600  0.34008700  0.96321800  1
  C  2801  1  0.53383500  0.38531500  0.99380499  1
  C  2802  1  0.56818900  0.33791400  0.94798100  1
  C  2804  1  0.56301400  0.37962400  0.96417700  1
  C  2805  1  0.55920500  0.40110600  0.97122800  1
  C  2806  1  0.57127400  0.41906800  0.96397100  1
  C  2807  1  0.58959700  0.41447100  0.95268500  1
  C  2808  1  0.59469700  0.39315400  0.94654000  1
  C  2809  1  0.57955500  0.37619200  0.95061200  1
  C  2810  1  0.54341100  0.40361000  0.98535700  1
  C  2812  1  0.58108000  0.35546100  0.94207700  1
  C  2817  1  0.56004100  0.05654900  0.69072300  1
  C  2818  1  0.57485000  0.04491600  0.67935200  1
  C  2820  1  0.55559100  0.01116100  0.68370300  1
  C  2821  1  0.53895600  0.02215000  0.69386400  1
  C  2822  1  0.54207800  0.04452200  0.69776000  1
  C  2824  1  0.55812800  0.98813700  0.68432900  1
  C  2825  1  0.56515700  0.97428000  0.66959500  1
  C  2826  1  0.56837400  0.95177800  0.67359900  1
  C  2827  1  0.56454300  0.94337700  0.69155200  1
  C  2828  1  0.55810700  0.95804000  0.70558400  1
  C  2839  1  0.28228900  0.44106400  0.19072200  1
  C  2840  1  0.26749600  0.45270000  0.17933500  1
  C  2842  1  0.28672700  0.48643500  0.18375200  1
  C  2843  1  0.30334300  0.47546500  0.19394900  1
  C  2844  1  0.30023500  0.45308000  0.19779700  1
  C  2846  1  0.28414900  0.50945500  0.18441700  1
  C  2847  1  0.27727600  0.52334700  0.16965400  1
  C  2848  1  0.27404700  0.54584500  0.17366700  1
  C  2849  1  0.27775100  0.55421300  0.19165100  1
  C  2850  1  0.28408000  0.53952300  0.20569800  1
  C  2861  1  0.22557100  0.10886700  0.44074400  1
  C  2862  1  0.21354100  0.09471900  0.42907500  1
  C  2864  1  0.18000100  0.11375600  0.43500900  1
  C  2865  1  0.19127400  0.12956000  0.44587200  1
  C  2866  1  0.21375200  0.12617900  0.44908200  1
  C  2868  1  0.15696200  0.11145600  0.43561900  1
  C  2869  1  0.14288200  0.10620700  0.42050800  1
  C  2870  1  0.12030500  0.10329900  0.42436500  1
  C  2871  1  0.11206000  0.10574600  0.44254300  1
  C  2872  1  0.12692800  0.11053300  0.45689700  1
  C  2883  1  0.61671600  0.38875200  0.94068200  1
  C  2884  1  0.62873800  0.40290500  0.92901400  1
  C  2886  1  0.66230500  0.38391000  0.93496700  1
  C  2887  1  0.65102500  0.36807100  0.94579500  1
  C  2888  1  0.62854200  0.37143800  0.94900600  1
  C  2890  1  0.68535600  0.38612300  0.93553400  1
  C  2891  1  0.69940500  0.39153500  0.92044300  1
  C  2892  1  0.72199000  0.39441100  0.92428800  1
  C  2893  1  0.73027400  0.39178300  0.94243400  1
  C  2894  1  0.71543600  0.38686500  0.95677700  1
  C  2905  1  0.56005900  0.44174200  0.19125900  1
  C  2906  1  0.57471800  0.45329500  0.20282500  1
  C  2908  1  0.55567900  0.48712800  0.19824700  1
  C  2909  1  0.53922700  0.47624400  0.18779500  1
  C  2910  1  0.54230300  0.45385200  0.18395400  1
  C  2912  1  0.55829200  0.51013600  0.19773600  1
  C  2913  1  0.56465700  0.52395100  0.21271100  1
  C  2914  1  0.56792000  0.54648500  0.20887500  1
  C  2915  1  0.56481400  0.55493500  0.19083800  1
  C  2916  1  0.55901800  0.54030200  0.17658100  1
  C  2927  1  0.28223300  0.05567200  0.69126100  1
  C  2928  1  0.26757900  0.04411500  0.70282900  1
  C  2930  1  0.28661500  0.01030800  0.69822000  1
  C  2931  1  0.30305900  0.02117600  0.68774900  1
  C  2932  1  0.29998900  0.04357500  0.68393800  1
  C  2934  1  0.28397700  0.98729800  0.69767700  1
  C  2935  1  0.27769200  0.97345700  0.71265900  1
  C  2936  1  0.27443400  0.95092300  0.70881100  1
  C  2937  1  0.27750600  0.94249400  0.69076400  1
  C  2938  1  0.28326700  0.95714400  0.67650800  1
  C  2949  1  0.22464200  0.38875300  0.44102200  1
  C  2950  1  0.21270500  0.40269600  0.45293200  1
  C  2952  1  0.17909500  0.38389300  0.44678400  1
  C  2953  1  0.19026000  0.36834000  0.43558300  1
  C  2954  1  0.21274700  0.37169600  0.43239600  1
  C  2956  1  0.15606400  0.38622800  0.44635300  1
  C  2957  1  0.14208100  0.39078400  0.46168900  1
  C  2958  1  0.11945600  0.39371500  0.45804700  1
  C  2959  1  0.11109000  0.39199300  0.43985000  1
  C  2960  1  0.12587800  0.38787300  0.42528200  1
  C  2971  1  0.61764200  0.10871500  0.94109500  1
  C  2972  1  0.62957400  0.09476400  0.95300200  1
  C  2974  1  0.66320800  0.11352600  0.94683000  1
  C  2975  1  0.65203200  0.12911800  0.93566500  1
  C  2976  1  0.62954100  0.12577600  0.93248300  1
  C  2978  1  0.68625100  0.11127400  0.94642400  1
  C  2979  1  0.70021100  0.10654600  0.96173900  1
  C  2980  1  0.72284100  0.10364600  0.95810000  1
  C  2981  1  0.73123500  0.10554900  0.93992500  1
  C  2982  1  0.71647100  0.10981200  0.92537200  1
  C  2993  1  0.61432500  0.88799800  0.94151600  1
  C  2994  1  0.62595200  0.90261900  0.95306300  1
  C  2996  1  0.65982200  0.88385800  0.94796300  1
  C  2997  1  0.64889900  0.86743700  0.93750600  1
  C  2998  1  0.62642400  0.87039400  0.93394600  1
  C  3000  1  0.68281100  0.88656200  0.94735300  1
  C  3001  1  0.69668400  0.89260600  0.96238200  1
  C  3002  1  0.71922900  0.89577100  0.95854700  1
  C  3003  1  0.72761300  0.89293600  0.94045700  1
  C  3004  1  0.71292100  0.88753900  0.92613900  1
  C  3015  1  0.22798800  0.60946800  0.44154900  1
  C  3016  1  0.21634800  0.59486100  0.45309900  1
  C  3018  1  0.18249500  0.61358300  0.44792500  1
  C  3019  1  0.19339800  0.62997400  0.43742400  1
  C  3020  1  0.21588600  0.62703500  0.43391500  1
  C  3022  1  0.15950400  0.61086400  0.44731800  1
  C  3023  1  0.14562400  0.60498700  0.46239000  1
  C  3024  1  0.12307100  0.60184200  0.45858400  1
  C  3025  1  0.11467800  0.60457100  0.44048400  1
  C  3026  1  0.12936800  0.60984900  0.42613300  1
  C  3037  1  0.61520600  0.60962400  0.94130200  1
  C  3038  1  0.62675600  0.59517300  0.92954900  1
  C  3040  1  0.66064600  0.61384400  0.93472800  1
  C  3041  1  0.64981800  0.63004000  0.94549800  1
  C  3042  1  0.62734800  0.62707200  0.94907100  1
  C  3044  1  0.68362500  0.61106100  0.93516500  1
  C  3045  1  0.69739500  0.60561900  0.91990200  1
  C  3046  1  0.71998200  0.60240600  0.92351600  1
  C  3047  1  0.72850400  0.60462800  0.94162200  1
  C  3048  1  0.71391400  0.60949300  0.95615300  1
  C  3059  1  0.22712200  0.88795400  0.44119400  1
  C  3060  1  0.21557100  0.90239500  0.42943200  1
  C  3062  1  0.18165600  0.88378400  0.43468600  1
  C  3063  1  0.19250000  0.86756700  0.44543300  1
  C  3064  1  0.21498000  0.87051700  0.44897600  1
  C  3066  1  0.15866500  0.88648700  0.43510100  1
  C  3067  1  0.14490900  0.89204400  0.41985800  1
  C  3068  1  0.12231800  0.89523500  0.42347400  1
  C  3069  1  0.11378100  0.89290300  0.44156500  1
  C  3070  1  0.12836000  0.88794600  0.45608200  1
  C  3081  1  0.06028000  0.55653400  0.19137900  1
  C  3082  1  0.07437900  0.54501900  0.17930600  1
  C  3084  1  0.05637300  0.51097100  0.18536100  1
  C  3085  1  0.04061500  0.52169600  0.19666300  1
  C  3086  1  0.04345600  0.54424200  0.19993200  1
  C  3088  1  0.05914400  0.48800300  0.18559300  1
  C  3089  1  0.06340400  0.47430900  0.17001700  1
  C  3090  1  0.06665900  0.45167600  0.17336300  1
  C  3091  1  0.06565800  0.44307000  0.19151700  1
  C  3092  1  0.06192600  0.45758600  0.20633900  1
  C  3103  1  0.78201000  0.94104600  0.69140800  1
  C  3104  1  0.76791600  0.95255400  0.67932500  1
  C  3106  1  0.78591500  0.98658400  0.68539000  1
  C  3107  1  0.80166100  0.97588300  0.69671900  1
  C  3108  1  0.79883100  0.95333200  0.69997200  1
  C  3110  1  0.78312100  0.00955300  0.68562900  1
  C  3111  1  0.77896300  0.02325900  0.67004100  1
  C  3112  1  0.77570400  0.04589000  0.67338300  1
  C  3113  1  0.77663300  0.05449100  0.69154100  1
  C  3114  1  0.78029700  0.03996900  0.70637100  1
  C  3125  1  0.06035400  0.94199800  0.69035500  1
  C  3126  1  0.07430100  0.95339100  0.70263600  1
  C  3128  1  0.05641500  0.98749600  0.69658300  1
  C  3129  1  0.04085800  0.97690400  0.68499900  1
  C  3130  1  0.04368800  0.95436800  0.68166900  1
  C  3132  1  0.05926800  0.01045100  0.69654000  1
  C  3133  1  0.06300400  0.02401900  0.71229100  1
  C  3134  1  0.06627800  0.04669300  0.70916100  1
  C  3135  1  0.06578800  0.05545500  0.69104700  1
  C  3136  1  0.06253100  0.04105600  0.67605800  1
  C  3147  1  0.78194500  0.55553800  0.19037300  1
  C  3148  1  0.76799300  0.54414400  0.20264600  1
  C  3150  1  0.78586600  0.51002900  0.19657600  1
  C  3151  1  0.80146100  0.52064200  0.18503200  1
  C  3152  1  0.79863300  0.54318000  0.18170600  1
  C  3154  1  0.78309800  0.48706100  0.19655100  1
  C  3155  1  0.77917700  0.47351800  0.21228600  1
  C  3156  1  0.77590600  0.45084400  0.20915500  1
  C  3157  1  0.77657100  0.44205200  0.19105500  1
  C  3158  1  0.77998700  0.45642900  0.17607600  1
  C  3169  1  0.36997600  0.87496500  0.66849800  1
  C  3170  1  0.37381500  0.86569000  0.68613300  1
  C  3172  1  0.41119200  0.87751700  0.68622700  1
  C  3173  1  0.40854700  0.88707000  0.66832600  1
  C  3174  1  0.38776200  0.88545000  0.65972100  1
  C  3176  1  0.43111500  0.87746900  0.69637700  1
  C  3177  1  0.43357200  0.88607700  0.71463800  1
  C  3178  1  0.45443500  0.88455900  0.72311900  1
  C  3179  1  0.47247300  0.87503500  0.71391800  1
  C  3180  1  0.46876900  0.86656300  0.69596900  1
  C  3191  1  0.47236300  0.62247300  0.16854200  1
  C  3192  1  0.46853400  0.63175500  0.18617600  1
  C  3194  1  0.43114200  0.61997400  0.18627200  1
  C  3195  1  0.43378000  0.61040800  0.16837600  1
  C  3196  1  0.45456400  0.61201100  0.15976600  1
  C  3198  1  0.41122300  0.62004500  0.19642600  1
  C  3199  1  0.40876400  0.61145800  0.21469400  1
  C  3200  1  0.38790600  0.61300900  0.22318200  1
  C  3201  1  0.36987000  0.62252100  0.21396900  1
  C  3202  1  0.37357200  0.63096300  0.19600900  1
  C  3213  1  0.04429200  0.29909400  0.41726600  1
  C  3214  1  0.03471300  0.29581100  0.43486600  1
  C  3216  1  0.04649000  0.25847600  0.43590800  1
  C  3217  1  0.05624900  0.26050600  0.41803400  1
  C  3218  1  0.05481600  0.28102300  0.40896200  1
  C  3220  1  0.04645200  0.23896500  0.44657100  1
  C  3221  1  0.05546000  0.23710900  0.46474100  1
  C  3222  1  0.05411400  0.21653500  0.47372900  1
  C  3223  1  0.04437800  0.19824000  0.46508100  1
  C  3224  1  0.03544600  0.20138600  0.44721600  1
  C  3235  1  0.79815600  0.19842000  0.91729300  1
  C  3236  1  0.80772200  0.20171700  0.93489700  1
  C  3238  1  0.79594900  0.23905500  0.93590900  1
  C  3239  1  0.78619700  0.23700700  0.91803300  1
  C  3240  1  0.78764700  0.21648700  0.90896900  1
  C  3242  1  0.79597900  0.25857500  0.94656000  1
  C  3243  1  0.78697400  0.26044700  0.96473000  1
  C  3244  1  0.78831900  0.28102900  0.97370400  1
  C  3245  1  0.79805600  0.29931600  0.96504400  1
  C  3246  1  0.80699100  0.29615200  0.94718100  1
  C  3257  1  0.47190100  0.12902100  0.71444400  1
  C  3258  1  0.46819800  0.13939900  0.69723700  1
  C  3260  1  0.43093800  0.12740900  0.69637900  1
  C  3261  1  0.43336800  0.11686800  0.71387900  1
  C  3262  1  0.45407200  0.11798100  0.72265400  1
  C  3264  1  0.41131200  0.12740300  0.68591900  1
  C  3265  1  0.40910000  0.11754000  0.66811500  1
  C  3266  1  0.38834900  0.11849600  0.65940500  1
  C  3267  1  0.37026500  0.12875400  0.66794900  1
  C  3268  1  0.37378100  0.13854400  0.68543600  1
  C  3279  1  0.37040600  0.36853100  0.21440200  1
  C  3280  1  0.37409100  0.35816200  0.19718800  1
  C  3282  1  0.41137000  0.37008800  0.19633700  1
  C  3283  1  0.40895700  0.38062400  0.21384100  1
  C  3284  1  0.38825400  0.37953000  0.22262100  1
  C  3286  1  0.43099700  0.37007500  0.18587500  1
  C  3287  1  0.43321600  0.37994000  0.16807200  1
  C  3288  1  0.45396100  0.37895100  0.15935500  1
  C  3289  1  0.47203700  0.36868100  0.16789800  1
  C  3290  1  0.46851600  0.35889500  0.18538400  1
  C  3301  1  0.79523200  0.69794700  0.96419500  1
  C  3302  1  0.80437400  0.70162600  0.94649100  1
  C  3304  1  0.79217000  0.73883500  0.94613600  1
  C  3305  1  0.78274000  0.73633900  0.96410400  1
  C  3306  1  0.78463300  0.71569300  0.97290300  1
  C  3308  1  0.79221000  0.75862900  0.93585400  1
  C  3309  1  0.78419800  0.76080800  0.91736800  1
  C  3310  1  0.78591800  0.78156400  0.90873400  1
  C  3311  1  0.79502300  0.79972400  0.91804700  1
  C  3312  1  0.80293100  0.79628700  0.93621800  1
  C  3323  1  0.04699800  0.79959300  0.46420200  1
  C  3324  1  0.03786600  0.79590600  0.44649500  1
  C  3326  1  0.05008600  0.75870300  0.44614900  1
  C  3327  1  0.05951100  0.76120900  0.46411900  1
  C  3328  1  0.05758900  0.78185000  0.47292100  1
  C  3330  1  0.05007300  0.73891200  0.43586600  1
  C  3331  1  0.05806900  0.73674100  0.41737600  1
  C  3332  1  0.05635800  0.71598400  0.40874100  1
  C  3333  1  0.04727200  0.69782000  0.41805600  1
  C  3334  1  0.03937200  0.70124800  0.43623000  1
  C  3345  1  0.86967700  0.37454200  0.16894100  1
  C  3346  1  0.87368400  0.36573300  0.18671700  1
  C  3348  1  0.91108500  0.37757100  0.18638100  1
  C  3349  1  0.90821600  0.38669800  0.16832600  1
  C  3350  1  0.88736700  0.38478800  0.15984900  1
  C  3352  1  0.93116600  0.37753700  0.19638300  1
  C  3353  1  0.93371000  0.38508800  0.21498800  1
  C  3354  1  0.95467600  0.38336700  0.22328600  1
  C  3355  1  0.97278400  0.37476500  0.21355700  1
  C  3356  1  0.96902400  0.36732700  0.19528700  1
  C  3367  1  0.97263100  0.12297200  0.66898500  1
  C  3368  1  0.96863200  0.13176200  0.68677200  1
  C  3370  1  0.93121800  0.11996100  0.68642200  1
  C  3371  1  0.93408300  0.11084400  0.66836200  1
  C  3372  1  0.95493100  0.11275700  0.65988200  1
  C  3374  1  0.91113600  0.12000300  0.69642300  1
  C  3375  1  0.90858700  0.11245200  0.71502900  1
  C  3376  1  0.88762500  0.11419100  0.72332900  1
  C  3377  1  0.86951600  0.12278400  0.71359400  1
  C  3378  1  0.87327800  0.13021200  0.69532200  1
  C  3389  1  0.54087900  0.80006500  0.91869100  1
  C  3390  1  0.53102900  0.79614000  0.93608600  1
  C  3392  1  0.54261900  0.75868700  0.93620000  1
  C  3393  1  0.55265000  0.76138500  0.91850100  1
  C  3394  1  0.55144500  0.78225800  0.91000900  1
  C  3396  1  0.54259100  0.73878400  0.94636500  1
  C  3397  1  0.55184600  0.73627000  0.96438600  1
  C  3398  1  0.55074600  0.71534600  0.97279700  1
  C  3399  1  0.54101300  0.69731300  0.96375000  1
  C  3400  1  0.53183400  0.70108800  0.94606500  1
  C  3411  1  0.30142600  0.69744400  0.41871700  1
  C  3412  1  0.31125500  0.70137900  0.43611900  1
  C  3414  1  0.29967500  0.73883500  0.43620800  1
  C  3415  1  0.28966300  0.73612700  0.41850000  1
  C  3416  1  0.29088700  0.71525100  0.41001300  1
  C  3418  1  0.29970500  0.75874600  0.44636000  1
  C  3419  1  0.29045500  0.76127800  0.46438300  1
  C  3420  1  0.29156100  0.78221100  0.47278200  1
  C  3421  1  0.30129500  0.80023500  0.46372000  1
  C  3422  1  0.31047100  0.79644100  0.44603800  1
  C  3433  1  0.97196900  0.62988400  0.21427600  1
  C  3434  1  0.96829000  0.63962900  0.19680500  1
  C  3436  1  0.93099600  0.62773300  0.19630300  1
  C  3437  1  0.93344100  0.61782100  0.21408200  1
  C  3438  1  0.95415000  0.61922800  0.22282800  1
  C  3440  1  0.91129900  0.62771800  0.18591800  1
  C  3441  1  0.90914400  0.61880200  0.16773700  1
  C  3442  1  0.88837000  0.62001200  0.15908000  1
  C  3443  1  0.87020900  0.62954000  0.16807600  1
  C  3444  1  0.87364100  0.63842200  0.18591800  1
  C  3455  1  0.87035200  0.86770700  0.71425400  1
  C  3456  1  0.87402000  0.85797100  0.69677700  1
  C  3458  1  0.91132500  0.86983000  0.69628000  1
  C  3459  1  0.90888800  0.87974100  0.71405900  1
  C  3460  1  0.88818300  0.87833500  0.72281400  1
  C  3462  1  0.93102200  0.86983000  0.68589300  1
  C  3463  1  0.93317900  0.87873600  0.66770900  1
  C  3464  1  0.95395000  0.87750100  0.65904700  1
  C  3465  1  0.97211100  0.86798500  0.66805100  1
  C  3466  1  0.96867900  0.85912400  0.68590000  1
  C  3477  1  0.29884600  0.19715100  0.46302600  1
  C  3478  1  0.30838200  0.20139500  0.44556200  1
  C  3480  1  0.29641900  0.23871500  0.44594100  1
  C  3481  1  0.28663900  0.23566200  0.46370800  1
  C  3482  1  0.28820000  0.21469700  0.47200000  1
  C  3484  1  0.29643700  0.25881400  0.43606100  1
  C  3485  1  0.28783800  0.26158700  0.41782700  1
  C  3486  1  0.28921400  0.28263600  0.40966400  1
  C  3487  1  0.29856800  0.30053100  0.41917400  1
  C  3488  1  0.30708400  0.29651200  0.43705700  1
  C  3499  1  0.54348900  0.30040200  0.96298800  1
  C  3500  1  0.53397000  0.29614800  0.94551900  1
  C  3502  1  0.54591900  0.25882300  0.94592600  1
  C  3503  1  0.55568400  0.26188900  0.96369800  1
  C  3504  1  0.55410800  0.28285600  0.97198300  1
  C  3506  1  0.54590200  0.23871600  0.93605800  1
  C  3507  1  0.55449700  0.23592500  0.91782400  1
  C  3508  1  0.55311200  0.21486900  0.90967400  1
  C  3509  1  0.54375500  0.19698400  0.91919500  1
  C  3510  1  0.53524100  0.20102100  0.93707600  1
  C  3521  1  0.51542000  0.85695300  0.76803500  1
  C  3522  1  0.51115600  0.83634200  0.77594700  1
  C  3524  1  0.51453500  0.85082900  0.80672900  1
  C  3525  1  0.51812200  0.87222600  0.79965900  1
  C  3526  1  0.51853600  0.87480800  0.78017300  1
  C  3528  1  0.51652900  0.84598100  0.82581700  1
  C  3529  1  0.49897700  0.84011000  0.83775600  1
  C  3530  1  0.50336800  0.83878000  0.85708300  1
  C  3531  1  0.52431600  0.84348400  0.86425400  1
  C  3532  1  0.54111600  0.84827900  0.85147900  1
  C  3543  1  0.32694600  0.64065800  0.26806100  1
  C  3544  1  0.33102500  0.66129300  0.27599700  1
  C  3546  1  0.32781600  0.64672100  0.30676000  1
  C  3547  1  0.32439500  0.62530600  0.29966600  1
  C  3548  1  0.32398400  0.62275700  0.28017700  1
  C  3550  1  0.32579900  0.65150900  0.32585700  1
  C  3551  1  0.34329700  0.65758400  0.33778300  1
  C  3552  1  0.33890100  0.65890900  0.35710900  1
  C  3553  1  0.31800400  0.65400900  0.36429600  1
  C  3554  1  0.30124100  0.64905600  0.35152900  1
  C  3565  1  0.02849100  0.15602900  0.52014300  1
  C  3566  1  0.00793600  0.15840800  0.52868600  1
  C  3568  1  0.02401900  0.15666300  0.55902900  1
  C  3569  1  0.04532400  0.15498100  0.55125500  1
  C  3570  1  0.04707300  0.15460200  0.53169600  1
  C  3572  1  0.02008200  0.15403700  0.57824700  1
  C  3573  1  0.01059700  0.16993300  0.59019600  1
  C  3574  1  0.00934000  0.16495000  0.60943100  1
  C  3575  1  0.01754200  0.14508400  0.61658400  1
  C  3576  1  0.02588300  0.12977800  0.60375900  1
  C  3587  1  0.81391100  0.34153400  0.02008200  1
  C  3588  1  0.83445700  0.33913700  0.02863600  1
  C  3590  1  0.81835500  0.34090500  0.05897300  1
  C  3591  1  0.79705500  0.34258800  0.05118400  1
  C  3592  1  0.79532200  0.34298000  0.03162400  1
  C  3594  1  0.82226800  0.34352500  0.07819500  1
  C  3595  1  0.83174900  0.32763300  0.09014900  1
  C  3596  1  0.83297800  0.33261100  0.10938600  1
  C  3597  1  0.82474000  0.35246400  0.11653900  1
  C  3598  1  0.81640800  0.36776900  0.10370900  1
  C  3609  1  0.51488700  0.64014200  0.11407400  1
  C  3610  1  0.51012100  0.66059300  0.10606600  1
  C  3612  1  0.51389100  0.64601400  0.07535000  1
  C  3613  1  0.51798400  0.62475100  0.08251500  1
  C  3614  1  0.51842800  0.62229300  0.10201200  1
  C  3616  1  0.51590300  0.65082900  0.05626000  1
  C  3617  1  0.49832100  0.65629600  0.04421100  1
  C  3618  1  0.50284900  0.65775400  0.02491400  1
  C  3619  1  0.52397000  0.65356600  0.01788200  1
  C  3620  1  0.54076000  0.64911500  0.03075500  1
  C  3631  1  0.32746700  0.85727700  0.61404700  1
  C  3632  1  0.33206400  0.83680500  0.60600900  1
  C  3634  1  0.32844500  0.85148800  0.57531800  1
  C  3635  1  0.32450900  0.87276600  0.58251400  1
  C  3636  1  0.32406900  0.87518200  0.60201600  1
  C  3638  1  0.32640500  0.84674100  0.55621600  1
  C  3639  1  0.34392500  0.84103200  0.54418300  1
  C  3640  1  0.33939100  0.83958300  0.52488500  1
  C  3641  1  0.31832500  0.84401100  0.51783500  1
  C  3642  1  0.30157900  0.84865400  0.53070000  1
  C  3653  1  0.02881600  0.34101700  0.36195700  1
  C  3654  1  0.00839100  0.33821800  0.35328200  1
  C  3656  1  0.02470000  0.34026900  0.32304000  1
  C  3657  1  0.04589900  0.34236100  0.33095100  1
  C  3658  1  0.04747000  0.34278400  0.35052200  1
  C  3660  1  0.02085600  0.34291200  0.30380800  1
  C  3661  1  0.01152200  0.32700900  0.29177900  1
  C  3662  1  0.01018700  0.33212000  0.27257300  1
  C  3663  1  0.01816900  0.35212500  0.26552200  1
  C  3664  1  0.02638800  0.36741100  0.27842000  1
  C  3675  1  0.81360900  0.15649500  0.86200800  1
  C  3676  1  0.83402400  0.15931600  0.85332100  1
  C  3678  1  0.81769100  0.15726100  0.82308600  1
  C  3679  1  0.79649700  0.15516900  0.83101300  1
  C  3680  1  0.79494700  0.15472000  0.85058500  1
  C  3682  1  0.82150700  0.15463300  0.80384800  1
  C  3683  1  0.83085000  0.17052900  0.79182000  1
  C  3684  1  0.83215500  0.16543000  0.77260800  1
  C  3685  1  0.82412100  0.14544900  0.76555100  1
  C  3686  1  0.81590000  0.13016300  0.77844900  1
  C  3697  1  0.32788600  0.14203000  0.61260300  1
  C  3698  1  0.33027400  0.16251500  0.60393300  1
  C  3700  1  0.32877600  0.14616300  0.57369600  1
  C  3701  1  0.32711900  0.12492100  0.58158700  1
  C  3702  1  0.32664000  0.12333900  0.60115500  1
  C  3704  1  0.32636000  0.14990300  0.55444200  1
  C  3705  1  0.34262700  0.15871500  0.54249500  1
  C  3706  1  0.33788700  0.15969000  0.52320900  1
  C  3707  1  0.31787600  0.15189700  0.51600700  1
  C  3708  1  0.30221400  0.14424600  0.52883800  1
  C  3719  1  0.51441200  0.35539400  0.11257100  1
  C  3720  1  0.51216400  0.33490400  0.10388600  1
  C  3722  1  0.51353200  0.35129700  0.07366600  1
  C  3723  1  0.51507000  0.37254200  0.08156800  1
  C  3724  1  0.51554600  0.37410600  0.10113800  1
  C  3726  1  0.51595100  0.34759500  0.05440600  1
  C  3727  1  0.49972400  0.33869800  0.04246400  1
  C  3728  1  0.50446400  0.33773900  0.02317800  1
  C  3729  1  0.52443100  0.34563300  0.01596600  1
  C  3730  1  0.54006000  0.35335800  0.02879400  1
  C  3741  1  0.81409000  0.84379100  0.86472300  1
  C  3742  1  0.83400000  0.83806300  0.85621100  1
  C  3744  1  0.81860000  0.84254100  0.82580600  1
  C  3745  1  0.79780800  0.84762800  0.83352100  1
  C  3746  1  0.79607300  0.84827900  0.85307300  1
  C  3748  1  0.82280600  0.84390800  0.80652100  1
  C  3749  1  0.82977800  0.82635500  0.79499100  1
  C  3750  1  0.83125300  0.83027100  0.77559000  1
  C  3751  1  0.82559000  0.85072100  0.76790100  1
  C  3752  1  0.81972800  0.86759900  0.78026900  1
  C  3763  1  0.02818400  0.65378300  0.36474800  1
  C  3764  1  0.00828200  0.65954200  0.35623500  1
  C  3766  1  0.02367200  0.65504600  0.32582900  1
  C  3767  1  0.04446000  0.64993800  0.33354500  1
  C  3768  1  0.04619100  0.64926200  0.35309600  1
  C  3770  1  0.01946300  0.65367600  0.30654500  1
  C  3771  1  0.01252600  0.67123700  0.29500600  1
  C  3772  1  0.01107100  0.66732200  0.27560500  1
  C  3773  1  0.01673700  0.64687000  0.26792000  1
  C  3774  1  0.02256900  0.62998600  0.28029400  1
  C  3785  1  0.32824400  0.35572900  0.26994400  1
  C  3786  1  0.33104100  0.33536900  0.27873600  1
  C  3788  1  0.32926600  0.35193200  0.30888000  1
  C  3789  1  0.32721400  0.37307600  0.30086200  1
  C  3790  1  0.32668500  0.37448800  0.28128400  1
  C  3792  1  0.32684000  0.34828400  0.32814800  1
  C  3793  1  0.34309700  0.33957300  0.34016100  1
  C  3794  1  0.33823900  0.33852300  0.35942500  1
  C  3795  1  0.31812500  0.34615000  0.36654200  1
  C  3796  1  0.30249400  0.35372200  0.35364900  1
  C  3807  1  0.51403700  0.14185700  0.76997600  1
  C  3808  1  0.51138000  0.16223300  0.77877500  1
  C  3810  1  0.51302600  0.14563900  0.80890700  1
  C  3811  1  0.51496100  0.12448700  0.80088700  1
  C  3812  1  0.51548700  0.12308300  0.78130800  1
  C  3814  1  0.51545600  0.14926100  0.82817900  1
  C  3815  1  0.49923100  0.15804200  0.84018800  1
  C  3816  1  0.50408900  0.15908200  0.85945100  1
  C  3817  1  0.52417300  0.15137800  0.86657400  1
  C  3818  1  0.53977700  0.14374300  0.85368400  1
  C  3829  1  0.81374800  0.65418200  0.01784600  1
  C  3830  1  0.83353000  0.66023100  0.02641700  1
  C  3832  1  0.81810300  0.65547400  0.05677900  1
  C  3833  1  0.79742200  0.65006500  0.04900500  1
  C  3834  1  0.79576200  0.64941000  0.02944800  1
  C  3836  1  0.82229900  0.65406100  0.07606100  1
  C  3837  1  0.82902200  0.67163300  0.08767900  1
  C  3838  1  0.83059100  0.66759800  0.10705800  1
  C  3839  1  0.82526200  0.64700300  0.11463700  1
  C  3840  1  0.81962200  0.63013300  0.10218700  1
  C  3851  1  0.02848000  0.84334700  0.51782800  1
  C  3852  1  0.00870600  0.83728900  0.52640600  1
  C  3854  1  0.02414900  0.84203600  0.55676400  1
  C  3855  1  0.04482800  0.84744100  0.54898100  1
  C  3856  1  0.04647000  0.84812600  0.52942400  1
  C  3858  1  0.01996600  0.84344800  0.57604900  1
  C  3859  1  0.01324800  0.82587800  0.58767000  1
  C  3860  1  0.01170800  0.82991200  0.60705200  1
  C  3861  1  0.01707500  0.85049500  0.61463100  1
  C  3862  1  0.02271600  0.86736200  0.60217700  1
  C  3873  1  0.72939100  0.89126600  0.71853000  1
  C  3874  1  0.71896400  0.89559000  0.73559500  1
  C  3876  1  0.68325600  0.89060100  0.72221000  1
  C  3877  1  0.69276800  0.88592500  0.70457900  1
  C  3878  1  0.71584700  0.88603700  0.70326400  1
  C  3880  1  0.66031200  0.89283300  0.72495500  1
  C  3881  1  0.65005300  0.91268500  0.73050300  1
  C  3882  1  0.62694700  0.91375800  0.72956500  1
  C  3883  1  0.61417400  0.89617100  0.72289600  1
  C  3884  1  0.62527000  0.87666000  0.71854100  1
  C  3895  1  0.11292200  0.60625900  0.21855800  1
  C  3896  1  0.12335100  0.60192600  0.23562100  1
  C  3898  1  0.15905500  0.60692100  0.22223900  1
  C  3899  1  0.14954500  0.61158200  0.20460400  1
  C  3900  1  0.12646600  0.61149500  0.20329200  1
  C  3902  1  0.18200200  0.60472000  0.22498700  1
  C  3903  1  0.19227300  0.58489600  0.23060000  1
  C  3904  1  0.21538600  0.58385300  0.22972400  1
  C  3905  1  0.22816100  0.60142100  0.22302800  1
  C  3906  1  0.21704700  0.62089800  0.21858700  1
  C  3917  1  0.06146900  0.94182500  0.46783300  1
  C  3918  1  0.06589900  0.95178700  0.48507800  1
  C  3920  1  0.05991100  0.98774400  0.47256500  1
  C  3921  1  0.05496800  0.97869800  0.45480900  1
  C  3922  1  0.05547500  0.95567900  0.45298200  1
  C  3924  1  0.06208500  0.01058800  0.47574600  1
  C  3925  1  0.08204500  0.02075300  0.48113600  1
  C  3926  1  0.08301000  0.04387300  0.48063200  1
  C  3927  1  0.06525400  0.05672600  0.47440900  1
  C  3928  1  0.04564900  0.04569900  0.47024800  1
  C  3939  1  0.78087500  0.55570300  0.96788200  1
  C  3940  1  0.77638100  0.54571500  0.98510600  1
  C  3942  1  0.78234000  0.50976100  0.97258100  1
  C  3943  1  0.78730700  0.51882100  0.95483400  1
  C  3944  1  0.78686500  0.54184400  0.95303100  1
  C  3946  1  0.78016800  0.48691600  0.97575500  1
  C  3947  1  0.76020200  0.47673600  0.98111000  1
  C  3948  1  0.75923500  0.45361600  0.98055900  1
  C  3949  1  0.77700200  0.44080600  0.97431200  1
  C  3950  1  0.79663400  0.45181900  0.97021900  1
  C  3961  1  0.72929100  0.60559100  0.16364400  1
  C  3962  1  0.71887100  0.60172300  0.14649600  1
  C  3964  1  0.68317600  0.60673600  0.15988500  1
  C  3965  1  0.69267500  0.61089900  0.17761300  1
  C  3966  1  0.71574600  0.61056300  0.17897200  1
  C  3968  1  0.66022200  0.60484100  0.15705800  1
  C  3969  1  0.64973800  0.58518400  0.15131900  1
  C  3970  1  0.62662500  0.58434200  0.15231100  1
  C  3971  1  0.61407200  0.60198200  0.15917600  1
  C  3972  1  0.62537700  0.62131900  0.16368500  1
  C  3983  1  0.11303000  0.89195800  0.66363800  1
  C  3984  1  0.12345200  0.89582000  0.64648900  1
  C  3986  1  0.15914000  0.89080600  0.65987800  1
  C  3987  1  0.14964500  0.88667400  0.67761300  1
  C  3988  1  0.12657200  0.88699200  0.67896800  1
  C  3990  1  0.18210000  0.89266300  0.65704900  1
  C  3991  1  0.19259800  0.91228300  0.65123600  1
  C  3992  1  0.21571800  0.91309100  0.65216100  1
  C  3993  1  0.22826900  0.89547000  0.65905900  1
  C  3994  1  0.21694100  0.87617300  0.66366500  1
  C  4005  1  0.06206700  0.55556600  0.41452400  1
  C  4006  1  0.06600100  0.54560100  0.39719000  1
  C  4008  1  0.05998800  0.50967500  0.40974200  1
  C  4009  1  0.05560800  0.51871500  0.42760600  1
  C  4010  1  0.05636300  0.54172300  0.42946500  1
  C  4012  1  0.06178600  0.48681900  0.40647300  1
  C  4013  1  0.08151900  0.47640300  0.40082800  1
  C  4014  1  0.08221300  0.45327300  0.40135300  1
  C  4015  1  0.06439900  0.44066200  0.40779800  1
  C  4016  1  0.04500200  0.45192700  0.41218800  1
  C  4027  1  0.78023700  0.94197900  0.91447300  1
  C  4028  1  0.77626000  0.95196500  0.89715400  1
  C  4030  1  0.78222900  0.98789300  0.90971300  1
  C  4031  1  0.78660900  0.97884600  0.92757400  1
  C  4032  1  0.78591600  0.95583200  0.92941700  1
  C  4034  1  0.78044600  0.01074800  0.90644200  1
  C  4035  1  0.76071900  0.02118800  0.90081000  1
  C  4036  1  0.76003000  0.04431500  0.90137600  1
  C  4037  1  0.77785300  0.05687800  0.90786100  1
  C  4038  1  0.79726900  0.04562100  0.91220400  1
  C  4049  1  0.11512000  0.10789400  0.66571700  1
  C  4050  1  0.12483200  0.10306500  0.64843900  1
  C  4052  1  0.16109800  0.10784400  0.66072900  1
  C  4053  1  0.15233200  0.11318300  0.67850600  1
  C  4054  1  0.12931200  0.11337400  0.68048500  1
  C  4056  1  0.18387500  0.10502200  0.65741800  1
  C  4057  1  0.19354400  0.08476000  0.65217500  1
  C  4058  1  0.21666200  0.08327900  0.65243600  1
  C  4059  1  0.23004700  0.10088100  0.65814100  1
  C  4060  1  0.21944100  0.12076200  0.66223000  1
  C  4071  1  0.72719000  0.38971900  0.16568900  1
  C  4072  1  0.71747200  0.39457900  0.14842200  1
  C  4074  1  0.68121400  0.38976500  0.16070800  1
  C  4075  1  0.68998400  0.38442100  0.17848200  1
  C  4076  1  0.71300400  0.38420900  0.18045500  1
  C  4078  1  0.65843200  0.39255500  0.15740000  1
  C  4079  1  0.64874700  0.41279800  0.15212200  1
  C  4080  1  0.62562600  0.41424500  0.15232200  1
  C  4081  1  0.61224300  0.39664100  0.15802400  1
  C  4082  1  0.62287100  0.37678800  0.16217600  1
  C  4093  1  0.11526200  0.39056500  0.21655200  1
  C  4094  1  0.12497200  0.39493400  0.23392200  1
  C  4096  1  0.16121600  0.39012300  0.22161400  1
  C  4097  1  0.15245300  0.38528000  0.20373600  1
  C  4098  1  0.12944000  0.38530400  0.20171700  1
  C  4100  1  0.18400700  0.39262900  0.22500500  1
  C  4101  1  0.19388300  0.41272200  0.23042800  1
  C  4102  1  0.21701400  0.41396500  0.23019300  1
  C  4103  1  0.23021000  0.39628100  0.22434200  1
  C  4104  1  0.21940800  0.37654800  0.22012000  1
  C  4115  1  0.72703000  0.10698100  0.71659200  1
  C  4116  1  0.71734900  0.10262000  0.73397400  1
  C  4118  1  0.68108300  0.10737000  0.72169600  1
  C  4119  1  0.68981800  0.11218700  0.70380300  1
  C  4120  1  0.71283100  0.11221800  0.70176700  1
  C  4122  1  0.65829600  0.10487600  0.72512400  1
  C  4123  1  0.64842000  0.08479500  0.73056700  1
  C  4124  1  0.62528900  0.08356000  0.73033400  1
  C  4125  1  0.61208800  0.10123800  0.72448600  1
  C  4126  1  0.62289900  0.12096200  0.72023400  1
  C  4137  1  0.56683900  0.44168300  0.96741400  1
  C  4138  1  0.57065500  0.45184500  0.98468800  1
  C  4140  1  0.56583900  0.48779500  0.97168600  1
  C  4141  1  0.56172600  0.47855600  0.95384700  1
  C  4142  1  0.56202100  0.45549700  0.95222400  1
  C  4144  1  0.56756900  0.51074100  0.97481300  1
  C  4145  1  0.58702700  0.52130200  0.98092700  1
  C  4146  1  0.58763100  0.54445900  0.98040300  1
  C  4147  1  0.56994000  0.55708000  0.97370500  1
  C  4148  1  0.55082700  0.54561300  0.96875000  1
  C  4159  1  0.27548000  0.05589000  0.46743600  1
  C  4160  1  0.27158700  0.04567600  0.48467700  1
  C  4162  1  0.27643200  0.00975800  0.47162800  1
  C  4163  1  0.28056900  0.01903800  0.45381000  1
  C  4164  1  0.28030500  0.04210200  0.45222900  1
  C  4166  1  0.27471900  0.98680300  0.47471300  1
  C  4167  1  0.25526800  0.97621800  0.48082800  1
  C  4168  1  0.25468500  0.95305900  0.48031000  1
  C  4169  1  0.27237900  0.94048100  0.47356200  1
  C  4170  1  0.29149600  0.95194900  0.46863000  1
  C  4181  1  0.56747100  0.05570100  0.91493100  1
  C  4182  1  0.57087400  0.04553500  0.89759400  1
  C  4184  1  0.56602900  0.00961200  0.91062100  1
  C  4185  1  0.56236800  0.01884800  0.92853000  1
  C  4186  1  0.56286100  0.04190100  0.93017600  1
  C  4188  1  0.56746600  0.98666000  0.90744600  1
  C  4189  1  0.58675300  0.97590400  0.90118100  1
  C  4190  1  0.58714000  0.95274200  0.90170700  1
  C  4191  1  0.56939100  0.94031800  0.90856200  1
  C  4192  1  0.55041900  0.95196200  0.91360600  1
  C  4203  1  0.27484300  0.44180500  0.41488800  1
  C  4204  1  0.27142000  0.45199100  0.39756200  1
  C  4206  1  0.27623600  0.48790800  0.41060600  1
  C  4207  1  0.27986600  0.47865900  0.42851600  1
  C  4208  1  0.27941500  0.45560300  0.43014300  1
  C  4210  1  0.27482500  0.51086300  0.40743200  1
  C  4211  1  0.25555700  0.52164500  0.40115700  1
  C  4212  1  0.25518300  0.54480700  0.40172300  1
  C  4213  1  0.27292600  0.55717900  0.40864200  1
  C  4214  1  0.29190200  0.54553500  0.41366600  1
  N  707  1  0.62163900  0.02303800  0.02417900  1
  N  717  1  0.60447200  0.97932300  0.04861500  1
  N  721  1  0.61730700  0.98161900  0.99911700  1
  N  724  1  0.56964900  0.01205500  0.04745200  1
  N  729  1  0.31868000  0.47457700  0.52416200  1
  N  739  1  0.33569500  0.51824300  0.54872200  1
  N  743  1  0.32321800  0.51603300  0.49915300  1
  N  746  1  0.37059200  0.48557500  0.54758900  1
  N  751  1  0.24060300  0.09712500  0.77442900  1
  N  761  1  0.19726000  0.11289200  0.80004900  1
  N  765  1  0.19907400  0.10445600  0.74984700  1
  N  768  1  0.23042100  0.14739100  0.80058800  1
  N  773  1  0.69965600  0.40051700  0.27437500  1
  N  783  1  0.74307400  0.38455100  0.29994400  1
  N  787  1  0.74116000  0.39345300  0.24980400  1
  N  790  1  0.70985600  0.35022400  0.30049500  1
  N  795  1  0.62154600  0.47517500  0.55224900  1
  N  805  1  0.60528700  0.51899500  0.52764600  1
  N  809  1  0.61611800  0.51653500  0.57748400  1
  N  812  1  0.57013900  0.48645600  0.52813800  1
  N  817  1  0.31873400  0.02223600  0.05226000  1
  N  827  1  0.33495700  0.97845100  0.02758100  1
  N  831  1  0.32423800  0.98085700  0.07744100  1
  N  834  1  0.37010500  0.01096000  0.02805900  1
  N  839  1  0.23977000  0.40030700  0.80185700  1
  N  849  1  0.19624900  0.38544300  0.77617700  1
  N  853  1  0.19841500  0.39184000  0.82658700  1
  N  856  1  0.22930400  0.35076200  0.77478900  1
  N  861  1  0.70049100  0.09713500  0.30191300  1
  N  871  1  0.74407100  0.11219900  0.27626300  1
  N  875  1  0.74183600  0.10532000  0.32662300  1
  N  878  1  0.71096300  0.14671400  0.27488700  1
  N  883  1  0.69686200  0.90058200  0.30222900  1
  N  893  1  0.74059300  0.88482900  0.27721400  1
  N  897  1  0.73833500  0.89478300  0.32720900  1
  N  900  1  0.70811200  0.84949200  0.27761800  1
  N  905  1  0.24341400  0.59689200  0.80226400  1
  N  915  1  0.19968500  0.61252700  0.77718000  1
  N  919  1  0.20196500  0.60291200  0.82722300  1
  N  922  1  0.23214500  0.64787100  0.77746600  1
  N  927  1  0.69765300  0.59724100  0.27454000  1
  N  937  1  0.74154300  0.61227100  0.29952300  1
  N  941  1  0.73889500  0.60404900  0.24931300  1
  N  944  1  0.70911800  0.64779300  0.29988000  1
  N  949  1  0.24264700  0.90034700  0.77445500  1
  N  959  1  0.19871000  0.88519600  0.79945100  1
  N  963  1  0.20139700  0.89372500  0.74928100  1
  N  966  1  0.23118200  0.84981600  0.79983000  1
  N  971  1  0.12144300  0.52307100  0.52449700  1
  N  981  1  0.10804500  0.47899100  0.54995100  1
  N  985  1  0.11277700  0.48190200  0.49941400  1
  N  988  1  0.07233600  0.51127100  0.55174600  1
  N  993  1  0.81883500  0.97450000  0.02449600  1
  N  1003  1  0.83215000  0.01856200  0.04998800  1
  N  1007  1  0.82763000  0.01566400  0.99943700  1
  N  1010  1  0.86789600  0.98632100  0.05182000  1
  N  1015  1  0.12135800  0.97532700  0.05179600  1
  N  1025  1  0.10861000  0.01961200  0.02648400  1
  N  1029  1  0.11186600  0.01626400  0.07708600  1
  N  1032  1  0.07276900  0.98744500  0.02397400  1
  N  1037  1  0.81891200  0.52220700  0.55179500  1
  N  1047  1  0.83187100  0.47787400  0.52650200  1
  N  1051  1  0.82812000  0.48129200  0.57707500  1
  N  1054  1  0.86755100  0.51011100  0.52402500  1
  N  1059  1  0.44280000  0.86725000  0.04124100  1
  N  1069  1  0.49770900  0.86806500  0.03519300  1
  N  1073  1  0.46612000  0.89624100  0.07107000  1
  N  1076  1  0.47371000  0.89820600  0.00661500  1
  N  1081  1  0.49752600  0.63022100  0.54128500  1
  N  1091  1  0.44260900  0.62944300  0.53523300  1
  N  1095  1  0.47419700  0.60131300  0.57113600  1
  N  1098  1  0.46658100  0.59929100  0.50666500  1
  N  1103  1  0.08514100  0.27608900  0.79045300  1
  N  1113  1  0.08581300  0.22115000  0.78593700  1
  N  1117  1  0.11483500  0.25383800  0.82060400  1
  N  1120  1  0.11640500  0.24401200  0.75679100  1
  N  1125  1  0.85526800  0.22144500  0.29047000  1
  N  1135  1  0.85459800  0.27638200  0.28591300  1
  N  1139  1  0.82557600  0.24372600  0.32060300  1
  N  1142  1  0.82403900  0.25350300  0.25677200  1
  N  1147  1  0.49731800  0.13815000  0.03610800  1
  N  1157  1  0.44267800  0.13742900  0.04075100  1
  N  1161  1  0.47465600  0.10675100  0.00662100  1
  N  1164  1  0.46606000  0.10530300  0.06924400  1
  N  1169  1  0.44295200  0.35938000  0.53606000  1
  N  1179  1  0.49760100  0.36003000  0.54070200  1
  N  1183  1  0.46564400  0.39073500  0.50657600  1
  N  1186  1  0.47426200  0.39215700  0.56921300  1
  N  1191  1  0.85159300  0.72149600  0.28547300  1
  N  1201  1  0.85028100  0.77633800  0.29134800  1
  N  1205  1  0.82339400  0.74421400  0.25508900  1
  N  1208  1  0.82044000  0.75250000  0.31993100  1
  N  1213  1  0.08864000  0.77603800  0.78548000  1
  N  1223  1  0.08999200  0.72119600  0.79136300  1
  N  1227  1  0.11683500  0.75334300  0.75509400  1
  N  1230  1  0.11977900  0.74504700  0.81995400  1
  N  1235  1  0.94275600  0.36744700  0.54163400  1
  N  1245  1  0.99784800  0.36889900  0.53474400  1
  N  1249  1  0.96624600  0.39450200  0.57195900  1
  N  1252  1  0.97321000  0.39776700  0.50633600  1
  N  1257  1  0.99753400  0.13005800  0.04168500  1
  N  1267  1  0.94243100  0.12863600  0.03478000  1
  N  1271  1  0.97403500  0.10305500  0.07200700  1
  N  1274  1  0.96705900  0.09979800  0.00636200  1
  N  1279  1  0.58127200  0.77608200  0.29113500  1
  N  1289  1  0.58199300  0.72118500  0.28532200  1
  N  1293  1  0.61124400  0.75270700  0.32062200  1
  N  1296  1  0.61286400  0.74518400  0.25690400  1
  N  1301  1  0.35898600  0.72144200  0.79115700  1
  N  1311  1  0.35828100  0.77633800  0.78530500  1
  N  1315  1  0.32903600  0.74485100  0.82063200  1
  N  1318  1  0.32745700  0.75233200  0.75688100  1
  N  1323  1  0.99738600  0.63819400  0.53577000  1
  N  1333  1  0.94257500  0.63716000  0.54111900  1
  N  1337  1  0.97475200  0.60858700  0.50582100  1
  N  1340  1  0.96617400  0.60648900  0.56973700  1
  N  1345  1  0.94290400  0.85938800  0.03574400  1
  N  1355  1  0.99772300  0.86039400  0.04110100  1
  N  1359  1  0.96554500  0.88893400  0.00578300  1
  N  1362  1  0.97414500  0.89105100  0.06972100  1
  N  1367  1  0.35584300  0.22154700  0.78499000  1
  N  1377  1  0.35469600  0.27629600  0.79176800  1
  N  1381  1  0.32677300  0.24527800  0.75538900  1
  N  1384  1  0.32430000  0.25160400  0.81978600  1
  N  1389  1  0.58448900  0.27598900  0.28495800  1
  N  1399  1  0.58561600  0.22124400  0.29177500  1
  N  1403  1  0.61354200  0.25222300  0.25537500  1
  N  1406  1  0.61597000  0.24594000  0.31979900  1
  N  1411  1  0.56029400  0.83398400  0.14182500  1
  N  1421  1  0.58558800  0.84968700  0.18029000  1
  N  1425  1  0.52735500  0.83657900  0.17856600  1
  N  1428  1  0.56985100  0.89011600  0.15775900  1
  N  1433  1  0.37987800  0.66361700  0.64187800  1
  N  1443  1  0.35475200  0.64765800  0.68034000  1
  N  1447  1  0.41285500  0.66131900  0.67857800  1
  N  1450  1  0.37079400  0.60737600  0.65774500  1
  N  1455  1  0.05543400  0.15817500  0.89462800  1
  N  1465  1  0.07599600  0.13480700  0.93265800  1
  N  1469  1  0.05247300  0.18965000  0.93112400  1
  N  1472  1  0.11286700  0.15404300  0.90875900  1
  N  1477  1  0.88492100  0.33937300  0.39458000  1
  N  1487  1  0.86429700  0.36274400  0.43260800  1
  N  1491  1  0.88787700  0.30792400  0.43107900  1
  N  1494  1  0.82748200  0.34355100  0.40867800  1
  N  1499  1  0.55923200  0.66284700  0.43441900  1
  N  1509  1  0.58510700  0.64759300  0.39615300  1
  N  1513  1  0.52656800  0.65932800  0.39751600  1
  N  1516  1  0.57017800  0.60687600  0.41872800  1
  N  1521  1  0.38094000  0.83459700  0.93435800  1
  N  1531  1  0.35521700  0.85015900  0.89609700  1
  N  1535  1  0.41361600  0.83775500  0.89750200  1
  N  1538  1  0.37043200  0.89069000  0.91875700  1
  N  1543  1  0.05604900  0.33842700  0.68157300  1
  N  1553  1  0.07655600  0.36226500  0.64373300  1
  N  1557  1  0.05360800  0.30717500  0.64499400  1
  N  1560  1  0.11351000  0.34364700  0.66780300  1
  N  1565  1  0.88432400  0.15911600  0.18161100  1
  N  1575  1  0.86373700  0.13529900  0.14376500  1
  N  1579  1  0.88678500  0.19034700  0.14503700  1
  N  1582  1  0.82685500  0.15386900  0.16787600  1
  N  1587  1  0.37916300  0.16384300  0.93222300  1
  N  1597  1  0.35601900  0.14332000  0.89423200  1
  N  1601  1  0.41142900  0.16547400  0.89587300  1
  N  1604  1  0.37525500  0.10628900  0.91842000  1
  N  1609  1  0.56123800  0.33359400  0.43217600  1
  N  1619  1  0.58423600  0.35426400  0.39419100  1
  N  1623  1  0.52894200  0.33182600  0.39585200  1
  N  1626  1  0.56481100  0.39118700  0.41841300  1
  N  1631  1  0.88459600  0.83808700  0.18451300  1
  N  1641  1  0.86736400  0.86356800  0.14577800  1
  N  1645  1  0.88319200  0.80609000  0.14881900  1
  N  1648  1  0.82858600  0.85129900  0.17025000  1
  N  1653  1  0.05566400  0.65952300  0.68453900  1
  N  1663  1  0.07289700  0.63401800  0.64580400  1
  N  1667  1  0.05709800  0.69150600  0.64883100  1
  N  1670  1  0.11165200  0.64622700  0.67026800  1
  N  1675  1  0.37996500  0.33419100  0.64469200  1
  N  1685  1  0.35640300  0.35470000  0.68251900  1
  N  1689  1  0.41198900  0.33297200  0.68110800  1
  N  1692  1  0.37502700  0.39177300  0.65815900  1
  N  1697  1  0.56041600  0.16339900  0.14473100  1
  N  1707  1  0.58384600  0.14278000  0.18255300  1
  N  1711  1  0.52835000  0.16473200  0.18112500  1
  N  1714  1  0.56502400  0.10578000  0.15817900  1
  N  1719  1  0.88406500  0.66020600  0.39235800  1
  N  1729  1  0.86716900  0.63427900  0.43094100  1
  N  1733  1  0.88211200  0.69201000  0.42818900  1
  N  1736  1  0.82823300  0.64607700  0.40647400  1
  N  1741  1  0.05616200  0.83730400  0.89234700  1
  N  1751  1  0.07312200  0.86321800  0.93093200  1
  N  1755  1  0.05810500  0.80550700  0.92818200  1
  N  1758  1  0.11199600  0.85144000  0.90644700  1
  N  1763  1  0.74580200  0.89516100  0.08383500  1
  N  1773  1  0.69638500  0.87591600  0.06655800  1
  N  1777  1  0.71017900  0.93106900  0.08245500  1
  N  1780  1  0.73002900  0.88278000  0.03585100  1
  N  1785  1  0.19449100  0.60237600  0.58386800  1
  N  1795  1  0.24390600  0.62162600  0.56657200  1
  N  1799  1  0.23013200  0.56652400  0.58260200  1
  N  1802  1  0.21026400  0.61473300  0.53587700  1
  N  1807  1  0.11405700  0.97386900  0.83381400  1
  N  1817  1  0.09398000  0.02356100  0.81789000  1
  N  1821  1  0.14961000  0.00958600  0.83248000  1
  N  1824  1  0.10025200  0.99083300  0.78639200  1
  N  1829  1  0.82617500  0.52363200  0.33383100  1
  N  1839  1  0.84625800  0.47395700  0.31787600  1
  N  1843  1  0.79061400  0.48789500  0.33246600  1
  N  1846  1  0.84002100  0.50668700  0.28641700  1
  N  1851  1  0.74571700  0.60237800  0.49245200  1
  N  1861  1  0.69650000  0.62182300  0.50989000  1
  N  1865  1  0.70966100  0.56676000  0.49338800  1
  N  1868  1  0.72990900  0.61378000  0.54060300  1
  N  1873  1  0.19458200  0.89514000  0.99244000  1
  N  1883  1  0.24379700  0.87569000  0.00990400  1
  N  1887  1  0.23066300  0.93069200  0.99324800  1
  N  1890  1  0.21038900  0.88379400  0.04060400  1
  N  1895  1  0.11391000  0.52353200  0.74266600  1
  N  1905  1  0.09360800  0.47407000  0.75879700  1
  N  1909  1  0.14913500  0.48734400  0.74347100  1
  N  1912  1  0.10118100  0.50656300  0.79030100  1
  N  1917  1  0.82630300  0.97403500  0.24263400  1
  N  1927  1  0.84660700  0.02347400  0.25880300  1
  N  1931  1  0.79108300  0.01026100  0.24342700  1
  N  1934  1  0.83901600  0.99099900  0.29026900  1
  N  1939  1  0.19591800  0.10310600  0.99382200  1
  N  1949  1  0.24630000  0.12190300  0.00913000  1
  N  1953  1  0.23085200  0.06642400  0.99535100  1
  N  1956  1  0.21371700  0.11662300  0.04105500  1
  N  1961  1  0.74436400  0.39451100  0.49379800  1
  N  1971  1  0.69399100  0.37567000  0.50910700  1
  N  1975  1  0.70940500  0.43113600  0.49527400  1
  N  1978  1  0.72658100  0.38095200  0.54102800  1
  N  1983  1  0.19605300  0.39467300  0.58281700  1
  N  1993  1  0.24625600  0.37565700  0.56741100  1
  N  1997  1  0.23137000  0.43113000  0.58163700  1
  N  2000  1  0.21386100  0.38207200  0.53540400  1
  N  2005  1  0.74424800  0.10286200  0.08289100  1
  N  2015  1  0.69403200  0.12183700  0.06749300  1
  N  2019  1  0.70891000  0.06639400  0.08179300  1
  N  2022  1  0.72635700  0.11537800  0.03548600  1
  N  2027  1  0.61906100  0.47398100  0.33321300  1
  N  2037  1  0.59952900  0.52345400  0.31632900  1
  N  2041  1  0.65446900  0.51041000  0.33308300  1
  N  2044  1  0.60788300  0.49057000  0.28523300  1
  N  2049  1  0.32116500  0.02353600  0.83317400  1
  N  2059  1  0.34074900  0.97410800  0.81622800  1
  N  2063  1  0.28581300  0.98709400  0.83302300  1
  N  2066  1  0.33242600  0.00706000  0.78518000  1
  N  2071  1  0.61908100  0.02340500  0.24328700  1
  N  2081  1  0.59935300  0.97412400  0.26028700  1
  N  2085  1  0.65424000  0.98662100  0.24312600  1
  N  2088  1  0.60873400  0.00681700  0.29140100  1
  N  2093  1  0.32118500  0.47412100  0.74326500  1
  N  2103  1  0.34091100  0.52337000  0.76033200  1
  N  2107  1  0.28605500  0.51095200  0.74305400  1
  N  2110  1  0.33146600  0.49068700  0.79139100  1
  N  2819  1  0.57265000  0.02303800  0.67705900  1
  N  2829  1  0.55548300  0.97932300  0.70149500  1
  N  2833  1  0.56831800  0.98161900  0.65199700  1
  N  2836  1  0.52066000  0.01205500  0.70033200  1
  N  2841  1  0.26969100  0.47457700  0.17704200  1
  N  2851  1  0.28670600  0.51824300  0.20160200  1
  N  2855  1  0.27422900  0.51603300  0.15203300  1
  N  2858  1  0.32160300  0.48557500  0.20046900  1
  N  2863  1  0.19161400  0.09712500  0.42730900  1
  N  2873  1  0.14827100  0.11289200  0.45292900  1
  N  2877  1  0.15008500  0.10445600  0.40272700  1
  N  2880  1  0.18143200  0.14739100  0.45346800  1
  N  2885  1  0.65066700  0.40051700  0.92725500  1
  N  2895  1  0.69408500  0.38455100  0.95282400  1
  N  2899  1  0.69217100  0.39345300  0.90268400  1
  N  2902  1  0.66086700  0.35022400  0.95337500  1
  N  2907  1  0.57255700  0.47517500  0.20512900  1
  N  2917  1  0.55629800  0.51899500  0.18052600  1
  N  2921  1  0.56712900  0.51653500  0.23036400  1
  N  2924  1  0.52115000  0.48645600  0.18101800  1
  N  2929  1  0.26974500  0.02223600  0.70514000  1
  N  2939  1  0.28596800  0.97845100  0.68046100  1
  N  2943  1  0.27524900  0.98085700  0.73032100  1
  N  2946  1  0.32111600  0.01096000  0.68093900  1
  N  2951  1  0.19078100  0.40030700  0.45473700  1
  N  2961  1  0.14726000  0.38544300  0.42905700  1
  N  2965  1  0.14942600  0.39184000  0.47946700  1
  N  2968  1  0.18031500  0.35076200  0.42766900  1
  N  2973  1  0.65150200  0.09713500  0.95479300  1
  N  2983  1  0.69508200  0.11219900  0.92914300  1
  N  2987  1  0.69284700  0.10532000  0.97950300  1
  N  2990  1  0.66197400  0.14671400  0.92776700  1
  N  2995  1  0.64787300  0.90058200  0.95510900  1
  N  3005  1  0.69160400  0.88482900  0.93009400  1
  N  3009  1  0.68934600  0.89478300  0.98008900  1
  N  3012  1  0.65912300  0.84949200  0.93049800  1
  N  3017  1  0.19442500  0.59689200  0.45514400  1
  N  3027  1  0.15069600  0.61252700  0.43006000  1
  N  3031  1  0.15297600  0.60291200  0.48010300  1
  N  3034  1  0.18315600  0.64787100  0.43034600  1
  N  3039  1  0.64866400  0.59724100  0.92742000  1
  N  3049  1  0.69255400  0.61227100  0.95240300  1
  N  3053  1  0.68990600  0.60404900  0.90219300  1
  N  3056  1  0.66012900  0.64779300  0.95276000  1
  N  3061  1  0.19365800  0.90034700  0.42733500  1
  N  3071  1  0.14972100  0.88519600  0.45233100  1
  N  3075  1  0.15240800  0.89372500  0.40216100  1
  N  3078  1  0.18219300  0.84981600  0.45271000  1
  N  3083  1  0.07245400  0.52307100  0.17737700  1
  N  3093  1  0.05905600  0.47899100  0.20283100  1
  N  3097  1  0.06378800  0.48190200  0.15229400  1
  N  3100  1  0.02334700  0.51127100  0.20462600  1
  N  3105  1  0.76984600  0.97450000  0.67737600  1
  N  3115  1  0.78316100  0.01856200  0.70286800  1
  N  3119  1  0.77864100  0.01566400  0.65231700  1
  N  3122  1  0.81890700  0.98632100  0.70470000  1
  N  3127  1  0.07236900  0.97532700  0.70467600  1
  N  3137  1  0.05962100  0.01961200  0.67936400  1
  N  3141  1  0.06287700  0.01626400  0.72996600  1
  N  3144  1  0.02378000  0.98744500  0.67685400  1
  N  3149  1  0.76992300  0.52220700  0.20467500  1
  N  3159  1  0.78288200  0.47787400  0.17938200  1
  N  3163  1  0.77913100  0.48129200  0.22995500  1
  N  3166  1  0.81856200  0.51011100  0.17690500  1
  N  3171  1  0.39381100  0.86725000  0.69412100  1
  N  3181  1  0.44872000  0.86806500  0.68807300  1
  N  3185  1  0.41713100  0.89624100  0.72395000  1
  N  3188  1  0.42472100  0.89820600  0.65949500  1
  N  3193  1  0.44853700  0.63022100  0.19416500  1
  N  3203  1  0.39362000  0.62944300  0.18811300  1
  N  3207  1  0.42520800  0.60131300  0.22401600  1
  N  3210  1  0.41759200  0.59929100  0.15954500  1
  N  3215  1  0.03615200  0.27608900  0.44333300  1
  N  3225  1  0.03682400  0.22115000  0.43881700  1
  N  3229  1  0.06584600  0.25383800  0.47348400  1
  N  3232  1  0.06741600  0.24401200  0.40967100  1
  N  3237  1  0.80627900  0.22144500  0.94335000  1
  N  3247  1  0.80560900  0.27638200  0.93879300  1
  N  3251  1  0.77658700  0.24372600  0.97348300  1
  N  3254  1  0.77505000  0.25350300  0.90965200  1
  N  3259  1  0.44832900  0.13815000  0.68898800  1
  N  3269  1  0.39368900  0.13742900  0.69363100  1
  N  3273  1  0.42566700  0.10675100  0.65950100  1
  N  3276  1  0.41707100  0.10530300  0.72212400  1
  N  3281  1  0.39396300  0.35938000  0.18894000  1
  N  3291  1  0.44861200  0.36003000  0.19358200  1
  N  3295  1  0.41665500  0.39073500  0.15945600  1
  N  3298  1  0.42527300  0.39215700  0.22209300  1
  N  3303  1  0.80260400  0.72149600  0.93835300  1
  N  3313  1  0.80129200  0.77633800  0.94422800  1
  N  3317  1  0.77440500  0.74421400  0.90796900  1
  N  3320  1  0.77145100  0.75250000  0.97281100  1
  N  3325  1  0.03965100  0.77603800  0.43836000  1
  N  3335  1  0.04100300  0.72119600  0.44424300  1
  N  3339  1  0.06784600  0.75334300  0.40797400  1
  N  3342  1  0.07079000  0.74504700  0.47283400  1
  N  3347  1  0.89376700  0.36744700  0.19451400  1
  N  3357  1  0.94885900  0.36889900  0.18762400  1
  N  3361  1  0.91725700  0.39450200  0.22483900  1
  N  3364  1  0.92422100  0.39776700  0.15921600  1
  N  3369  1  0.94854500  0.13005800  0.69456500  1
  N  3379  1  0.89344200  0.12863600  0.68766000  1
  N  3383  1  0.92504600  0.10305500  0.72488700  1
  N  3386  1  0.91807000  0.09979800  0.65924200  1
  N  3391  1  0.53228300  0.77608200  0.94401500  1
  N  3401  1  0.53300400  0.72118500  0.93820200  1
  N  3405  1  0.56225500  0.75270700  0.97350200  1
  N  3408  1  0.56387500  0.74518400  0.90978400  1
  N  3413  1  0.30999700  0.72144200  0.44403700  1
  N  3423  1  0.30929200  0.77633800  0.43818500  1
  N  3427  1  0.28004700  0.74485100  0.47351200  1
  N  3430  1  0.27846800  0.75233200  0.40976100  1
  N  3435  1  0.94839700  0.63819400  0.18865000  1
  N  3445  1  0.89358600  0.63716000  0.19399900  1
  N  3449  1  0.92576300  0.60858700  0.15870100  1
  N  3452  1  0.91718500  0.60648900  0.22261700  1
  N  3457  1  0.89391500  0.85938800  0.68862400  1
  N  3467  1  0.94873400  0.86039400  0.69398100  1
  N  3471  1  0.91655600  0.88893400  0.65866300  1
  N  3474  1  0.92515600  0.89105100  0.72260100  1
  N  3479  1  0.30685400  0.22154700  0.43787000  1
  N  3489  1  0.30570700  0.27629600  0.44464800  1
  N  3493  1  0.27778400  0.24527800  0.40826900  1
  N  3496  1  0.27531100  0.25160400  0.47266600  1
  N  3501  1  0.53550000  0.27598900  0.93783800  1
  N  3511  1  0.53662700  0.22124400  0.94465500  1
  N  3515  1  0.56455300  0.25222300  0.90825500  1
  N  3518  1  0.56698100  0.24594000  0.97267900  1
  N  3523  1  0.51130500  0.83398400  0.79470500  1
  N  3533  1  0.53659900  0.84968700  0.83317000  1
  N  3537  1  0.47836600  0.83657900  0.83144600  1
  N  3540  1  0.52086200  0.89011600  0.81063900  1
  N  3545  1  0.33088900  0.66361700  0.29475800  1
  N  3555  1  0.30576300  0.64765800  0.33322000  1
  N  3559  1  0.36386600  0.66131900  0.33145800  1
  N  3562  1  0.32180500  0.60737600  0.31062500  1
  N  3567  1  0.00644500  0.15817500  0.54750800  1
  N  3577  1  0.02700700  0.13480700  0.58553800  1
  N  3581  1  0.00348400  0.18965000  0.58400400  1
  N  3584  1  0.06387800  0.15404300  0.56163900  1
  N  3589  1  0.83593200  0.33937300  0.04746000  1
  N  3599  1  0.81530800  0.36274400  0.08548800  1
  N  3603  1  0.83888800  0.30792400  0.08395900  1
  N  3606  1  0.77849300  0.34355100  0.06155800  1
  N  3611  1  0.51024300  0.66284700  0.08729900  1
  N  3621  1  0.53611800  0.64759300  0.04903300  1
  N  3625  1  0.47757900  0.65932800  0.05039600  1
  N  3628  1  0.52118900  0.60687600  0.07160800  1
  N  3633  1  0.33195100  0.83459700  0.58723800  1
  N  3643  1  0.30622800  0.85015900  0.54897700  1
  N  3647  1  0.36462700  0.83775500  0.55038200  1
  N  3650  1  0.32144300  0.89069000  0.57163700  1
  N  3655  1  0.00706000  0.33842700  0.33445300  1
  N  3665  1  0.02756700  0.36226500  0.29661300  1
  N  3669  1  0.00461900  0.30717500  0.29787400  1
  N  3672  1  0.06452100  0.34364700  0.32068300  1
  N  3677  1  0.83533500  0.15911600  0.83449100  1
  N  3687  1  0.81474800  0.13529900  0.79664500  1
  N  3691  1  0.83779600  0.19034700  0.79791700  1
  N  3694  1  0.77786600  0.15386900  0.82075600  1
  N  3699  1  0.33017400  0.16384300  0.58510300  1
  N  3709  1  0.30703000  0.14332000  0.54711200  1
  N  3713  1  0.36244000  0.16547400  0.54875300  1
  N  3716  1  0.32626600  0.10628900  0.57130000  1
  N  3721  1  0.51224900  0.33359400  0.08505600  1
  N  3731  1  0.53524700  0.35426400  0.04707100  1
  N  3735  1  0.47995300  0.33182600  0.04873200  1
  N  3738  1  0.51582200  0.39118700  0.07129300  1
  N  3743  1  0.83560700  0.83808700  0.83739300  1
  N  3753  1  0.81837500  0.86356800  0.79865800  1
  N  3757  1  0.83420300  0.80609000  0.80169900  1
  N  3760  1  0.77959700  0.85129900  0.82313000  1
  N  3765  1  0.00667500  0.65952300  0.33741900  1
  N  3775  1  0.02390800  0.63401800  0.29868400  1
  N  3779  1  0.00810900  0.69150600  0.30171100  1
  N  3782  1  0.06266300  0.64622700  0.32314800  1
  N  3787  1  0.33097600  0.33419100  0.29757200  1
  N  3797  1  0.30741400  0.35470000  0.33539900  1
  N  3801  1  0.36300000  0.33297200  0.33398800  1
  N  3804  1  0.32603800  0.39177300  0.31103900  1
  N  3809  1  0.51142700  0.16339900  0.79761100  1
  N  3819  1  0.53485700  0.14278000  0.83543300  1
  N  3823  1  0.47936100  0.16473200  0.83400500  1
  N  3826  1  0.51603500  0.10578000  0.81105900  1
  N  3831  1  0.83507600  0.66020600  0.04523800  1
  N  3841  1  0.81818000  0.63427900  0.08382100  1
  N  3845  1  0.83312300  0.69201000  0.08106900  1
  N  3848  1  0.77924400  0.64607700  0.05935400  1
  N  3853  1  0.00717300  0.83730400  0.54522700  1
  N  3863  1  0.02413300  0.86321800  0.58381200  1
  N  3867  1  0.00911600  0.80550700  0.58106200  1
  N  3870  1  0.06300700  0.85144000  0.55932700  1
  N  3875  1  0.69681300  0.89516100  0.73671500  1
  N  3885  1  0.64739600  0.87591600  0.71943800  1
  N  3889  1  0.66119000  0.93106900  0.73533500  1
  N  3892  1  0.68104000  0.88278000  0.68873100  1
  N  3897  1  0.14550200  0.60237600  0.23674800  1
  N  3907  1  0.19491700  0.62162600  0.21945200  1
  N  3911  1  0.18114300  0.56652400  0.23548200  1
  N  3914  1  0.16127500  0.61473300  0.18875700  1
  N  3919  1  0.06506800  0.97386900  0.48669400  1
  N  3929  1  0.04499100  0.02356100  0.47077000  1
  N  3933  1  0.10062100  0.00958600  0.48536000  1
  N  3936  1  0.05126300  0.99083300  0.43927200  1
  N  3941  1  0.77718600  0.52363200  0.98671100  1
  N  3951  1  0.79726900  0.47395700  0.97075600  1
  N  3955  1  0.74162500  0.48789500  0.98534600  1
  N  3958  1  0.79103200  0.50668700  0.93929700  1
  N  3963  1  0.69672800  0.60237800  0.14533200  1
  N  3973  1  0.64751100  0.62182300  0.16277000  1
  N  3977  1  0.66067200  0.56676000  0.14626800  1
  N  3980  1  0.68092000  0.61378000  0.19348300  1
  N  3985  1  0.14559300  0.89514000  0.64532000  1
  N  3995  1  0.19480800  0.87569000  0.66278400  1
  N  3999  1  0.18167400  0.93069200  0.64612800  1
  N  4002  1  0.16140000  0.88379400  0.69348400  1
  N  4007  1  0.06492100  0.52353200  0.39554600  1
  N  4017  1  0.04461900  0.47407000  0.41167700  1
  N  4021  1  0.10014600  0.48734400  0.39635100  1
  N  4024  1  0.05219200  0.50656300  0.44318100  1
  N  4029  1  0.77731400  0.97403500  0.89551400  1
  N  4039  1  0.79761800  0.02347400  0.91168300  1
  N  4043  1  0.74209400  0.01026100  0.89630700  1
  N  4046  1  0.79002700  0.99099900  0.94314900  1
  N  4051  1  0.14692900  0.10310600  0.64670200  1
  N  4061  1  0.19731100  0.12190300  0.66201000  1
  N  4065  1  0.18186300  0.06642400  0.64823100  1
  N  4068  1  0.16472800  0.11662300  0.69393500  1
  N  4073  1  0.69537500  0.39451100  0.14667800  1
  N  4083  1  0.64500200  0.37567000  0.16198700  1
  N  4087  1  0.66041600  0.43113600  0.14815400  1
  N  4090  1  0.67759200  0.38095200  0.19390800  1
  N  4095  1  0.14706400  0.39467300  0.23569700  1
  N  4105  1  0.19726700  0.37565700  0.22029100  1
  N  4109  1  0.18238100  0.43113000  0.23451700  1
  N  4112  1  0.16487200  0.38207200  0.18828400  1
  N  4117  1  0.69525900  0.10286200  0.73577100  1
  N  4127  1  0.64504300  0.12183700  0.72037300  1
  N  4131  1  0.65992100  0.06639400  0.73467300  1
  N  4134  1  0.67736800  0.11537800  0.68836600  1
  N  4139  1  0.57007200  0.47398100  0.98609300  1
  N  4149  1  0.55054000  0.52345400  0.96920900  1
  N  4153  1  0.60548000  0.51041000  0.98596300  1
  N  4156  1  0.55889400  0.49057000  0.93811300  1
  N  4161  1  0.27217600  0.02353600  0.48605400  1
  N  4171  1  0.29176000  0.97410800  0.46910800  1
  N  4175  1  0.23682400  0.98709400  0.48590300  1
  N  4178  1  0.28343700  0.00706000  0.43806000  1
  N  4183  1  0.57009200  0.02340500  0.89616700  1
  N  4193  1  0.55036400  0.97412400  0.91316700  1
  N  4197  1  0.60525100  0.98662100  0.89600600  1
  N  4200  1  0.55974500  0.00681700  0.94428100  1
  N  4205  1  0.27219600  0.47412100  0.39614500  1
  N  4215  1  0.29192200  0.52337000  0.41321200  1
  N  4219  1  0.23706600  0.51095200  0.39593400  1
  N  4222  1  0.28247700  0.49068700  0.44427100  1
