# generated using pymatgen
data_H32C41(N2O)4
_symmetry_space_group_name_H-M   'P 1'
_cell_length_a   39.16720000
_cell_length_b   39.16720000
_cell_length_c   39.16720000
_cell_angle_alpha   90.00000000
_cell_angle_beta   90.00000000
_cell_angle_gamma   90.00000000
_symmetry_Int_Tables_number   1
_chemical_formula_structural   H32C41(N2O)4
_chemical_formula_sum   'H512 C656 N128 O64'
_cell_volume   60085.20910750
_cell_formula_units_Z   16
loop_
 _symmetry_equiv_pos_site_id
 _symmetry_equiv_pos_as_xyz
  1  'x, y, z'
loop_
 _atom_site_type_symbol
 _atom_site_label
 _atom_site_symmetry_multiplicity
 _atom_site_fract_x
 _atom_site_fract_y
 _atom_site_fract_z
 _atom_site_occupancy
  H  25  1  0.08457900  0.89381800  0.00565200  1
  H  26  1  0.04497400  0.89933800  0.95941400  1
  H  27  1  0.95263500  0.96020800  0.89923900  1
  H  28  1  0.91518600  0.00805400  0.89259500  1
  H  29  1  0.95324600  0.05116700  0.98301300  1
  H  30  1  0.04638100  0.98363300  0.04992200  1
  H  31  1  0.95325600  0.95157600  0.01966200  1
  H  32  1  0.91505800  0.99474500  0.10999600  1
  H  33  1  0.95250000  0.04259700  0.10336800  1
  H  34  1  0.04642600  0.01911900  0.95280600  1
  H  35  1  0.04490900  0.10344900  0.04328200  1
  H  36  1  0.08455600  0.10896100  0.99708100  1
  H  39  1  0.01388000  0.94677100  0.92405000  1
  H  40  1  0.98263200  0.92414500  0.94775100  1
  H  42  1  0.98255800  0.07863600  0.05487900  1
  H  43  1  0.01377900  0.05602700  0.07863600  1
  H  45  1  0.89384900  0.06577900  0.95199200  1
  H  47  1  0.10667100  0.95500500  0.06235400  1
  H  49  1  0.89386700  0.93690000  0.05062200  1
  H  51  1  0.10672100  0.04777100  0.94041600  1
  H  76  1  0.41816100  0.10892100  0.50567000  1
  H  77  1  0.45775800  0.10339800  0.45942500  1
  H  78  1  0.55009000  0.04252500  0.39924200  1
  H  79  1  0.58754200  0.99468100  0.39259600  1
  H  80  1  0.54948500  0.95156600  0.48301300  1
  H  81  1  0.45635300  0.01910100  0.54993100  1
  H  82  1  0.54947200  0.05115400  0.51966400  1
  H  83  1  0.58767200  0.00798600  0.60999700  1
  H  84  1  0.55023000  0.96013400  0.60336900  1
  H  85  1  0.45629500  0.98361300  0.45281200  1
  H  86  1  0.45781900  0.89928000  0.54328600  1
  H  87  1  0.41816600  0.89377200  0.49708600  1
  H  90  1  0.48884500  0.05596200  0.42405100  1
  H  91  1  0.52009300  0.07858700  0.44775400  1
  H  93  1  0.52017200  0.92409600  0.55488200  1
  H  94  1  0.48894900  0.94670200  0.57863700  1
  H  96  1  0.60888400  0.93696200  0.45199300  1
  H  98  1  0.39606300  0.04773700  0.56237300  1
  H  100  1  0.60886600  0.06582200  0.55061800  1
  H  102  1  0.39599400  0.95497400  0.44043900  1
  H  127  1  0.36004100  0.83420500  0.26060600  1
  H  128  1  0.35668800  0.79365300  0.21497300  1
  H  129  1  0.29711100  0.70218400  0.15215100  1
  H  130  1  0.24853800  0.66628900  0.14273400  1
  H  131  1  0.20129900  0.70624300  0.23017700  1
  H  132  1  0.26648500  0.79919800  0.29945700  1
  H  133  1  0.30136900  0.70622000  0.27254700  1
  H  134  1  0.25410400  0.66627100  0.35997900  1
  H  135  1  0.20555200  0.70219600  0.35056800  1
  H  136  1  0.23621500  0.79919300  0.20325600  1
  H  137  1  0.14601200  0.79368900  0.28774300  1
  H  138  1  0.14266900  0.83423300  0.24210100  1
  H  141  1  0.31098400  0.76303600  0.17710100  1
  H  142  1  0.33101100  0.73165700  0.20287700  1
  H  144  1  0.17166900  0.73169300  0.29984800  1
  H  145  1  0.19171200  0.76306100  0.32562400  1
  H  147  1  0.18465000  0.64914200  0.19875300  1
  H  149  1  0.29635500  0.86105400  0.30977900  1
  H  151  1  0.31801300  0.64912900  0.30395000  1
  H  153  1  0.20635300  0.86104600  0.19289000  1
  H  178  1  0.14268700  0.16850100  0.76062500  1
  H  179  1  0.14602700  0.20905600  0.71499300  1
  H  180  1  0.20558500  0.30053400  0.65216700  1
  H  181  1  0.25415200  0.33644400  0.64274900  1
  H  182  1  0.30140500  0.29648800  0.73018400  1
  H  183  1  0.23624300  0.20351900  0.79946700  1
  H  184  1  0.20133800  0.29648800  0.77255900  1
  H  185  1  0.24859700  0.33644400  0.85998900  1
  H  186  1  0.29715900  0.30052900  0.85057300  1
  H  187  1  0.26651100  0.20353000  0.70326100  1
  H  188  1  0.35671400  0.20905000  0.78774800  1
  H  189  1  0.36006400  0.16850800  0.74210500  1
  H  192  1  0.19172300  0.23967900  0.67711400  1
  H  193  1  0.17169800  0.27105300  0.70289600  1
  H  195  1  0.33104400  0.27104500  0.79985000  1
  H  196  1  0.31101200  0.23967000  0.82562600  1
  H  198  1  0.31804600  0.35358400  0.69876800  1
  H  200  1  0.20638000  0.14166600  0.80980900  1
  H  202  1  0.18469100  0.35357900  0.80396800  1
  H  204  1  0.29638300  0.14168100  0.69289800  1
  H  229  1  0.64214100  0.17091200  0.74105800  1
  H  230  1  0.64782700  0.20791500  0.78937600  1
  H  231  1  0.70761700  0.29894400  0.85290200  1
  H  232  1  0.75487300  0.33696000  0.86069400  1
  H  233  1  0.80005100  0.30016900  0.77076900  1
  H  234  1  0.73415700  0.20826600  0.70083600  1
  H  235  1  0.70273800  0.30017200  0.73190500  1
  H  236  1  0.74785200  0.33679200  0.64187600  1
  H  237  1  0.79510100  0.29877300  0.64969600  1
  H  238  1  0.76862200  0.20832600  0.80191200  1
  H  239  1  0.85493900  0.20787000  0.71335600  1
  H  240  1  0.86063800  0.17093000  0.76172300  1
  H  243  1  0.69546600  0.23745900  0.82700500  1
  H  244  1  0.67279200  0.26898200  0.80372800  1
  H  246  1  0.82995900  0.26890300  0.69891100  1
  H  247  1  0.80727200  0.23734100  0.67569700  1
  H  249  1  0.81333500  0.35943800  0.80233900  1
  H  251  1  0.70285800  0.15023300  0.68346700  1
  H  253  1  0.68951800  0.35943800  0.70026100  1
  H  255  1  0.79992400  0.15026100  0.81928200  1
  H  280  1  0.86058700  0.83182800  0.24103600  1
  H  281  1  0.85491900  0.79479900  0.28933600  1
  H  282  1  0.79520000  0.70368200  0.35279200  1
  H  283  1  0.74795700  0.66564800  0.36057700  1
  H  284  1  0.70268700  0.70255600  0.27074700  1
  H  285  1  0.76855600  0.79449000  0.20082700  1
  H  286  1  0.79999800  0.70257200  0.23185600  1
  H  287  1  0.75489100  0.66600300  0.14180500  1
  H  288  1  0.70764000  0.70401700  0.14964100  1
  H  289  1  0.73410600  0.79438300  0.30190800  1
  H  290  1  0.64779100  0.79487600  0.21334900  1
  H  291  1  0.64209500  0.83180000  0.26173100  1
  H  294  1  0.80731200  0.76520600  0.32696700  1
  H  295  1  0.82997200  0.73371500  0.30363100  1
  H  297  1  0.67277400  0.73385600  0.19886800  1
  H  298  1  0.69546600  0.76543300  0.17567900  1
  H  300  1  0.68937700  0.64329300  0.30225800  1
  H  302  1  0.79985500  0.85251600  0.18344500  1
  H  304  1  0.81321000  0.64332100  0.20018800  1
  H  306  1  0.70280900  0.85245200  0.31928000  1
  H  331  1  0.58225400  0.39216200  0.51522100  1
  H  332  1  0.54482500  0.39608600  0.46706100  1
  H  333  1  0.45419800  0.45403800  0.40155000  1
  H  334  1  0.41792800  0.50207800  0.39089000  1
  H  335  1  0.45492100  0.55031400  0.47912500  1
  H  336  1  0.54553800  0.48580400  0.55219100  1
  H  337  1  0.45489800  0.45233200  0.52355700  1
  H  338  1  0.41771400  0.50063300  0.61168000  1
  H  339  1  0.45397600  0.54868000  0.60104600  1
  H  340  1  0.54565200  0.51679200  0.45063700  1
  H  341  1  0.54479700  0.60655000  0.53572100  1
  H  342  1  0.58233900  0.61042800  0.48764500  1
  H  345  1  0.51504000  0.44189000  0.42789300  1
  H  346  1  0.48347300  0.42085200  0.45261500  1
  H  348  1  0.48337300  0.58182300  0.55000300  1
  H  349  1  0.51486900  0.56081300  0.57484000  1
  H  351  1  0.39843500  0.56620300  0.44557100  1
  H  353  1  0.60281000  0.45509500  0.57125800  1
  H  355  1  0.39835600  0.43643900  0.55705500  1
  H  357  1  0.60288900  0.54746300  0.43156200  1
  H  382  1  0.92046300  0.61055400  0.01513200  1
  H  383  1  0.95791300  0.60659600  0.96699400  1
  H  384  1  0.04857200  0.54860900  0.90156700  1
  H  385  1  0.08484100  0.50056400  0.89095100  1
  H  386  1  0.04778700  0.45236300  0.97918100  1
  H  387  1  0.95713900  0.51692200  0.05216500  1
  H  388  1  0.04783300  0.55035300  0.02354700  1
  H  389  1  0.08487800  0.50213900  0.11177600  1
  H  390  1  0.04859200  0.45410400  0.10116100  1
  H  391  1  0.95711600  0.48585800  0.95060300  1
  H  392  1  0.95787700  0.39616800  0.03576000  1
  H  393  1  0.92040400  0.39223800  0.98763900  1
  H  396  1  0.98772300  0.56076700  0.92786500  1
  H  397  1  0.01926400  0.58182300  0.95260200  1
  H  399  1  0.01925300  0.42091300  0.05012100  1
  H  400  1  0.98773400  0.44196400  0.07488600  1
  H  402  1  0.10427100  0.43641600  0.94565500  1
  H  404  1  0.89986400  0.54766700  0.07120000  1
  H  406  1  0.10442800  0.56616200  0.05708800  1
  H  408  1  0.89987400  0.45515100  0.93151800  1
  H  415  1  0.92587100  0.88781800  0.15071100  1
  H  419  1  0.83870900  0.79448500  0.07796800  1
  H  421  1  0.84948800  0.79873600  0.16306600  1
  H  422  1  0.81155800  0.81095600  0.14220200  1
  H  424  1  0.94757000  0.91475700  0.09929500  1
  H  425  1  0.93507700  0.89455100  0.06105200  1
  H  432  1  0.57683400  0.11495800  0.65069200  1
  H  436  1  0.66406000  0.20820500  0.57792900  1
  H  438  1  0.65323500  0.20401200  0.66305200  1
  H  439  1  0.69117200  0.19178400  0.64220500  1
  H  441  1  0.55516500  0.08798500  0.59928400  1
  H  442  1  0.56767600  0.10818700  0.56104500  1
  H  449  1  0.35251100  0.67129600  0.41031200  1
  H  453  1  0.46387000  0.61318600  0.33160600  1
  H  455  1  0.44420000  0.60292000  0.43012200  1
  H  456  1  0.45177000  0.57897400  0.39301700  1
  H  458  1  0.33039600  0.69955100  0.35943600  1
  H  459  1  0.35452100  0.69435100  0.32178400  1
  H  466  1  0.15016500  0.33135100  0.91031200  1
  H  470  1  0.03885300  0.38958300  0.83160300  1
  H  472  1  0.05848900  0.39975200  0.93013400  1
  H  473  1  0.05096000  0.42374400  0.89305000  1
  H  475  1  0.17229700  0.30312800  0.85942500  1
  H  476  1  0.14817900  0.30835200  0.82177100  1
  H  483  1  0.57666600  0.88741800  0.35216400  1
  H  487  1  0.66489000  0.79458500  0.42478900  1
  H  489  1  0.65329800  0.79861100  0.33979700  1
  H  490  1  0.69123600  0.81093500  0.36058700  1
  H  492  1  0.55510400  0.91459100  0.40351300  1
  H  493  1  0.56772200  0.89452000  0.44179000  1
  H  500  1  0.92606000  0.11528800  0.85214800  1
  H  504  1  0.83787900  0.20817600  0.92475500  1
  H  506  1  0.84943700  0.20410800  0.83977100  1
  H  507  1  0.81150500  0.19179400  0.86057100  1
  H  509  1  0.94763100  0.08813600  0.90350500  1
  H  510  1  0.93501900  0.10821400  0.94177900  1
  H  517  1  0.15016800  0.67154100  0.09243100  1
  H  521  1  0.03946200  0.61377800  0.17249900  1
  H  523  1  0.05872900  0.60302700  0.07226800  1
  H  524  1  0.05092000  0.57921100  0.10941000  1
  H  526  1  0.17221200  0.69968700  0.14339500  1
  H  527  1  0.14809000  0.69434300  0.18102900  1
  H  534  1  0.35255500  0.33128400  0.59244400  1
  H  538  1  0.46346400  0.38901900  0.67169400  1
  H  540  1  0.44413900  0.39976300  0.57250900  1
  H  541  1  0.45171700  0.42372400  0.60960400  1
  H  543  1  0.33047800  0.30308000  0.64336700  1
  H  544  1  0.35458700  0.30837000  0.68101800  1
  H  551  1  0.10754800  0.07820300  0.84696800  1
  H  555  1  0.12799200  0.21477600  0.89969600  1
  H  557  1  0.16546000  0.19507600  0.84387100  1
  H  558  1  0.20162000  0.17279800  0.85929000  1
  H  560  1  0.06996500  0.06291700  0.89570300  1
  H  561  1  0.05779900  0.10091200  0.91675600  1
  H  568  1  0.39518200  0.92451200  0.34695800  1
  H  572  1  0.37470900  0.78799000  0.39974500  1
  H  574  1  0.33727400  0.80765700  0.34387400  1
  H  575  1  0.30109100  0.82991800  0.35926500  1
  H  577  1  0.43273200  0.93982100  0.39571100  1
  H  578  1  0.44488500  0.90181500  0.41675400  1
  H  585  1  0.63972800  0.32880800  0.60084600  1
  H  589  1  0.54522600  0.41318200  0.67553600  1
  H  591  1  0.54960700  0.40476400  0.59157300  1
  H  592  1  0.56215600  0.44231900  0.61292500  1
  H  594  1  0.66708800  0.30585500  0.65152400  1
  H  595  1  0.64743100  0.31742600  0.69035200  1
  H  602  1  0.86303200  0.67397600  0.10080200  1
  H  606  1  0.95746600  0.58945900  0.17550100  1
  H  608  1  0.95310000  0.59796900  0.09149500  1
  H  609  1  0.94054400  0.56042200  0.11285100  1
  H  611  1  0.83566000  0.69691900  0.15147700  1
  H  612  1  0.85530400  0.68533300  0.19031000  1
  H  619  1  0.39530200  0.07830100  0.65581800  1
  H  623  1  0.37384300  0.21512100  0.60343500  1
  H  625  1  0.33731200  0.19510400  0.65887200  1
  H  626  1  0.30116000  0.17283400  0.64343300  1
  H  628  1  0.43282600  0.06294300  0.60705800  1
  H  629  1  0.44497100  0.10092200  0.58596400  1
  H  636  1  0.10744100  0.92444100  0.15580700  1
  H  640  1  0.12887700  0.78761700  0.10343100  1
  H  642  1  0.16540800  0.80762900  0.15886900  1
  H  643  1  0.20156900  0.82988700  0.14342800  1
  H  645  1  0.06991600  0.93979600  0.10704600  1
  H  646  1  0.05777500  0.90181200  0.08595500  1
  H  653  1  0.86265200  0.32899900  0.90200900  1
  H  657  1  0.95766000  0.41275100  0.82704100  1
  H  659  1  0.95301600  0.40468500  0.91137400  1
  H  660  1  0.94061300  0.44224700  0.88995300  1
  H  662  1  0.83554500  0.30592400  0.85125200  1
  H  663  1  0.85533700  0.31739500  0.81246200  1
  H  670  1  0.64045100  0.67345100  0.40216500  1
  H  674  1  0.54484800  0.59053400  0.32767400  1
  H  676  1  0.54980900  0.59798400  0.41140000  1
  H  677  1  0.56219900  0.56042200  0.38996600  1
  H  679  1  0.66735100  0.69669700  0.35138000  1
  H  680  1  0.64744700  0.68536600  0.31260800  1
  H  705  1  0.08457900  0.89381800  0.36309400  1
  H  706  1  0.04497400  0.89933800  0.31685600  1
  H  707  1  0.95263500  0.96020800  0.25668100  1
  H  708  1  0.91518600  0.00805400  0.25003700  1
  H  709  1  0.95324600  0.05116700  0.34045500  1
  H  710  1  0.04638100  0.98363300  0.40736400  1
  H  711  1  0.95325600  0.95157600  0.37710400  1
  H  712  1  0.91505800  0.99474500  0.46743800  1
  H  713  1  0.95250000  0.04259700  0.46081000  1
  H  714  1  0.04642600  0.01911900  0.31024800  1
  H  715  1  0.04490900  0.10344900  0.40072400  1
  H  716  1  0.08455600  0.10896100  0.35452300  1
  H  719  1  0.01388000  0.94677100  0.28149200  1
  H  720  1  0.98263200  0.92414500  0.30519300  1
  H  722  1  0.98255800  0.07863600  0.41232100  1
  H  723  1  0.01377900  0.05602700  0.43607800  1
  H  725  1  0.89384900  0.06577900  0.30943400  1
  H  727  1  0.10667100  0.95500500  0.41979600  1
  H  729  1  0.89386700  0.93690000  0.40806400  1
  H  731  1  0.10672100  0.04777100  0.29785800  1
  H  756  1  0.41816100  0.10892100  0.86311200  1
  H  757  1  0.45775800  0.10339800  0.81686700  1
  H  758  1  0.55009000  0.04252500  0.75668400  1
  H  759  1  0.58754200  0.99468100  0.75003800  1
  H  760  1  0.54948500  0.95156600  0.84045500  1
  H  761  1  0.45635300  0.01910100  0.90737300  1
  H  762  1  0.54947200  0.05115400  0.87710600  1
  H  763  1  0.58767200  0.00798600  0.96743900  1
  H  764  1  0.55023000  0.96013400  0.96081100  1
  H  765  1  0.45629500  0.98361300  0.81025400  1
  H  766  1  0.45781900  0.89928000  0.90072800  1
  H  767  1  0.41816600  0.89377200  0.85452800  1
  H  770  1  0.48884500  0.05596200  0.78149300  1
  H  771  1  0.52009300  0.07858700  0.80519600  1
  H  773  1  0.52017200  0.92409600  0.91232400  1
  H  774  1  0.48894900  0.94670200  0.93607900  1
  H  776  1  0.60888400  0.93696200  0.80943500  1
  H  778  1  0.39606300  0.04773700  0.91981500  1
  H  780  1  0.60886600  0.06582200  0.90806000  1
  H  782  1  0.39599400  0.95497400  0.79788100  1
  H  807  1  0.36004100  0.83420500  0.61804800  1
  H  808  1  0.35668800  0.79365300  0.57241500  1
  H  809  1  0.29711100  0.70218400  0.50959300  1
  H  810  1  0.24853800  0.66628900  0.50017600  1
  H  811  1  0.20129900  0.70624300  0.58761900  1
  H  812  1  0.26648500  0.79919800  0.65689900  1
  H  813  1  0.30136900  0.70622000  0.62998900  1
  H  814  1  0.25410400  0.66627100  0.71742100  1
  H  815  1  0.20555200  0.70219600  0.70801000  1
  H  816  1  0.23621500  0.79919300  0.56069800  1
  H  817  1  0.14601200  0.79368900  0.64518500  1
  H  818  1  0.14266900  0.83423300  0.59954300  1
  H  821  1  0.31098400  0.76303600  0.53454300  1
  H  822  1  0.33101100  0.73165700  0.56031900  1
  H  824  1  0.17166900  0.73169300  0.65729000  1
  H  825  1  0.19171200  0.76306100  0.68306600  1
  H  827  1  0.18465000  0.64914200  0.55619500  1
  H  829  1  0.29635500  0.86105400  0.66722100  1
  H  831  1  0.31801300  0.64912900  0.66139200  1
  H  833  1  0.20635300  0.86104600  0.55033200  1
  H  858  1  0.14268700  0.16850100  0.11806700  1
  H  859  1  0.14602700  0.20905600  0.07243490  1
  H  860  1  0.20558500  0.30053400  0.00960894  1
  H  861  1  0.25415200  0.33644400  0.00019094  1
  H  862  1  0.30140500  0.29648800  0.08762590  1
  H  863  1  0.23624300  0.20351900  0.15690900  1
  H  864  1  0.20133800  0.29648800  0.13000100  1
  H  865  1  0.24859700  0.33644400  0.21743100  1
  H  866  1  0.29715900  0.30052900  0.20801500  1
  H  867  1  0.26651100  0.20353000  0.06070290  1
  H  868  1  0.35671400  0.20905000  0.14519000  1
  H  869  1  0.36006400  0.16850800  0.09954690  1
  H  872  1  0.19172300  0.23967900  0.03455590  1
  H  873  1  0.17169800  0.27105300  0.06033790  1
  H  875  1  0.33104400  0.27104500  0.15729200  1
  H  876  1  0.31101200  0.23967000  0.18306800  1
  H  878  1  0.31804600  0.35358400  0.05620990  1
  H  880  1  0.20638000  0.14166600  0.16725100  1
  H  882  1  0.18469100  0.35357900  0.16141000  1
  H  884  1  0.29638300  0.14168100  0.05033990  1
  H  909  1  0.64214100  0.17091200  0.09849990  1
  H  910  1  0.64782700  0.20791500  0.14681800  1
  H  911  1  0.70761700  0.29894400  0.21034400  1
  H  912  1  0.75487300  0.33696000  0.21813600  1
  H  913  1  0.80005100  0.30016900  0.12821100  1
  H  914  1  0.73415700  0.20826600  0.05827790  1
  H  915  1  0.70273800  0.30017200  0.08934690  1
  H  916  1  0.74785200  0.33679200  0.99931800  1
  H  917  1  0.79510100  0.29877300  0.00713794  1
  H  918  1  0.76862200  0.20832600  0.15935400  1
  H  919  1  0.85493900  0.20787000  0.07079790  1
  H  920  1  0.86063800  0.17093000  0.11916500  1
  H  923  1  0.69546600  0.23745900  0.18444700  1
  H  924  1  0.67279200  0.26898200  0.16117000  1
  H  926  1  0.82995900  0.26890300  0.05635290  1
  H  927  1  0.80727200  0.23734100  0.03313890  1
  H  929  1  0.81333500  0.35943800  0.15978100  1
  H  931  1  0.70285800  0.15023300  0.04090890  1
  H  933  1  0.68951800  0.35943800  0.05770290  1
  H  935  1  0.79992400  0.15026100  0.17672400  1
  H  960  1  0.86058700  0.83182800  0.59847800  1
  H  961  1  0.85491900  0.79479900  0.64677800  1
  H  962  1  0.79520000  0.70368200  0.71023400  1
  H  963  1  0.74795700  0.66564800  0.71801900  1
  H  964  1  0.70268700  0.70255600  0.62818900  1
  H  965  1  0.76855600  0.79449000  0.55826900  1
  H  966  1  0.79999800  0.70257200  0.58929800  1
  H  967  1  0.75489100  0.66600300  0.49924700  1
  H  968  1  0.70764000  0.70401700  0.50708300  1
  H  969  1  0.73410600  0.79438300  0.65935000  1
  H  970  1  0.64779100  0.79487600  0.57079100  1
  H  971  1  0.64209500  0.83180000  0.61917300  1
  H  974  1  0.80731200  0.76520600  0.68440900  1
  H  975  1  0.82997200  0.73371500  0.66107300  1
  H  977  1  0.67277400  0.73385600  0.55631000  1
  H  978  1  0.69546600  0.76543300  0.53312100  1
  H  980  1  0.68937700  0.64329300  0.65970000  1
  H  982  1  0.79985500  0.85251600  0.54088700  1
  H  984  1  0.81321000  0.64332100  0.55763000  1
  H  986  1  0.70280900  0.85245200  0.67672200  1
  H  1011  1  0.58225400  0.39216200  0.87266300  1
  H  1012  1  0.54482500  0.39608600  0.82450300  1
  H  1013  1  0.45419800  0.45403800  0.75899200  1
  H  1014  1  0.41792800  0.50207800  0.74833200  1
  H  1015  1  0.45492100  0.55031400  0.83656700  1
  H  1016  1  0.54553800  0.48580400  0.90963300  1
  H  1017  1  0.45489800  0.45233200  0.88099900  1
  H  1018  1  0.41771400  0.50063300  0.96912200  1
  H  1019  1  0.45397600  0.54868000  0.95848800  1
  H  1020  1  0.54565200  0.51679200  0.80807900  1
  H  1021  1  0.54479700  0.60655000  0.89316300  1
  H  1022  1  0.58233900  0.61042800  0.84508700  1
  H  1025  1  0.51504000  0.44189000  0.78533500  1
  H  1026  1  0.48347300  0.42085200  0.81005700  1
  H  1028  1  0.48337300  0.58182300  0.90744500  1
  H  1029  1  0.51486900  0.56081300  0.93228200  1
  H  1031  1  0.39843500  0.56620300  0.80301300  1
  H  1033  1  0.60281000  0.45509500  0.92870000  1
  H  1035  1  0.39835600  0.43643900  0.91449700  1
  H  1037  1  0.60288900  0.54746300  0.78900400  1
  H  1062  1  0.92046300  0.61055400  0.37257400  1
  H  1063  1  0.95791300  0.60659600  0.32443600  1
  H  1064  1  0.04857200  0.54860900  0.25900900  1
  H  1065  1  0.08484100  0.50056400  0.24839300  1
  H  1066  1  0.04778700  0.45236300  0.33662300  1
  H  1067  1  0.95713900  0.51692200  0.40960700  1
  H  1068  1  0.04783300  0.55035300  0.38098900  1
  H  1069  1  0.08487800  0.50213900  0.46921800  1
  H  1070  1  0.04859200  0.45410400  0.45860300  1
  H  1071  1  0.95711600  0.48585800  0.30804500  1
  H  1072  1  0.95787700  0.39616800  0.39320200  1
  H  1073  1  0.92040400  0.39223800  0.34508100  1
  H  1076  1  0.98772300  0.56076700  0.28530700  1
  H  1077  1  0.01926400  0.58182300  0.31004400  1
  H  1079  1  0.01925300  0.42091300  0.40756300  1
  H  1080  1  0.98773400  0.44196400  0.43232800  1
  H  1082  1  0.10427100  0.43641600  0.30309700  1
  H  1084  1  0.89986400  0.54766700  0.42864200  1
  H  1086  1  0.10442800  0.56616200  0.41453000  1
  H  1088  1  0.89987400  0.45515100  0.28896000  1
  H  1095  1  0.92587100  0.88781800  0.50815300  1
  H  1099  1  0.83870900  0.79448500  0.43541000  1
  H  1101  1  0.84948800  0.79873600  0.52050800  1
  H  1102  1  0.81155800  0.81095600  0.49964400  1
  H  1104  1  0.94757000  0.91475700  0.45673700  1
  H  1105  1  0.93507700  0.89455100  0.41849400  1
  H  1112  1  0.57683400  0.11495800  0.00813394  1
  H  1116  1  0.66406000  0.20820500  0.93537100  1
  H  1118  1  0.65323500  0.20401200  0.02049390  1
  H  1119  1  0.69117200  0.19178400  0.99964700  1
  H  1121  1  0.55516500  0.08798500  0.95672600  1
  H  1122  1  0.56767600  0.10818700  0.91848700  1
  H  1129  1  0.35251100  0.67129600  0.76775400  1
  H  1133  1  0.46387000  0.61318600  0.68904800  1
  H  1135  1  0.44420000  0.60292000  0.78756400  1
  H  1136  1  0.45177000  0.57897400  0.75045900  1
  H  1138  1  0.33039600  0.69955100  0.71687800  1
  H  1139  1  0.35452100  0.69435100  0.67922600  1
  H  1146  1  0.15016500  0.33135100  0.26775400  1
  H  1150  1  0.03885300  0.38958300  0.18904500  1
  H  1152  1  0.05848900  0.39975200  0.28757600  1
  H  1153  1  0.05096000  0.42374400  0.25049200  1
  H  1155  1  0.17229700  0.30312800  0.21686700  1
  H  1156  1  0.14817900  0.30835200  0.17921300  1
  H  1163  1  0.57666600  0.88741800  0.70960600  1
  H  1167  1  0.66489000  0.79458500  0.78223100  1
  H  1169  1  0.65329800  0.79861100  0.69723900  1
  H  1170  1  0.69123600  0.81093500  0.71802900  1
  H  1172  1  0.55510400  0.91459100  0.76095500  1
  H  1173  1  0.56772200  0.89452000  0.79923200  1
  H  1180  1  0.92606000  0.11528800  0.20959000  1
  H  1184  1  0.83787900  0.20817600  0.28219700  1
  H  1186  1  0.84943700  0.20410800  0.19721300  1
  H  1187  1  0.81150500  0.19179400  0.21801300  1
  H  1189  1  0.94763100  0.08813600  0.26094700  1
  H  1190  1  0.93501900  0.10821400  0.29922100  1
  H  1197  1  0.15016800  0.67154100  0.44987300  1
  H  1201  1  0.03946200  0.61377800  0.52994100  1
  H  1203  1  0.05872900  0.60302700  0.42971000  1
  H  1204  1  0.05092000  0.57921100  0.46685200  1
  H  1206  1  0.17221200  0.69968700  0.50083700  1
  H  1207  1  0.14809000  0.69434300  0.53847100  1
  H  1214  1  0.35255500  0.33128400  0.94988600  1
  H  1218  1  0.46346400  0.38901900  0.02913590  1
  H  1220  1  0.44413900  0.39976300  0.92995100  1
  H  1221  1  0.45171700  0.42372400  0.96704600  1
  H  1223  1  0.33047800  0.30308000  0.00080894  1
  H  1224  1  0.35458700  0.30837000  0.03845990  1
  H  1231  1  0.10754800  0.07820300  0.20441000  1
  H  1235  1  0.12799200  0.21477600  0.25713800  1
  H  1237  1  0.16546000  0.19507600  0.20131300  1
  H  1238  1  0.20162000  0.17279800  0.21673200  1
  H  1240  1  0.06996500  0.06291700  0.25314500  1
  H  1241  1  0.05779900  0.10091200  0.27419800  1
  H  1248  1  0.39518200  0.92451200  0.70440000  1
  H  1252  1  0.37470900  0.78799000  0.75718700  1
  H  1254  1  0.33727400  0.80765700  0.70131600  1
  H  1255  1  0.30109100  0.82991800  0.71670700  1
  H  1257  1  0.43273200  0.93982100  0.75315300  1
  H  1258  1  0.44488500  0.90181500  0.77419600  1
  H  1265  1  0.63972800  0.32880800  0.95828800  1
  H  1269  1  0.54522600  0.41318200  0.03297790  1
  H  1271  1  0.54960700  0.40476400  0.94901500  1
  H  1272  1  0.56215600  0.44231900  0.97036700  1
  H  1274  1  0.66708800  0.30585500  0.00896594  1
  H  1275  1  0.64743100  0.31742600  0.04779390  1
  H  1282  1  0.86303200  0.67397600  0.45824400  1
  H  1286  1  0.95746600  0.58945900  0.53294300  1
  H  1288  1  0.95310000  0.59796900  0.44893700  1
  H  1289  1  0.94054400  0.56042200  0.47029300  1
  H  1291  1  0.83566000  0.69691900  0.50891900  1
  H  1292  1  0.85530400  0.68533300  0.54775200  1
  H  1299  1  0.39530200  0.07830100  0.01325990  1
  H  1303  1  0.37384300  0.21512100  0.96087700  1
  H  1305  1  0.33731200  0.19510400  0.01631390  1
  H  1306  1  0.30116000  0.17283400  0.00087494  1
  H  1308  1  0.43282600  0.06294300  0.96450000  1
  H  1309  1  0.44497100  0.10092200  0.94340600  1
  H  1316  1  0.10744100  0.92444100  0.51324900  1
  H  1320  1  0.12887700  0.78761700  0.46087300  1
  H  1322  1  0.16540800  0.80762900  0.51631100  1
  H  1323  1  0.20156900  0.82988700  0.50087000  1
  H  1325  1  0.06991600  0.93979600  0.46448800  1
  H  1326  1  0.05777500  0.90181200  0.44339700  1
  H  1333  1  0.86265200  0.32899900  0.25945100  1
  H  1337  1  0.95766000  0.41275100  0.18448300  1
  H  1339  1  0.95301600  0.40468500  0.26881600  1
  H  1340  1  0.94061300  0.44224700  0.24739500  1
  H  1342  1  0.83554500  0.30592400  0.20869400  1
  H  1343  1  0.85533700  0.31739500  0.16990400  1
  H  1350  1  0.64045100  0.67345100  0.75960700  1
  H  1354  1  0.54484800  0.59053400  0.68511600  1
  H  1356  1  0.54980900  0.59798400  0.76884200  1
  H  1357  1  0.56219900  0.56042200  0.74740800  1
  H  1359  1  0.66735100  0.69669700  0.70882200  1
  H  1360  1  0.64744700  0.68536600  0.67005000  1
  C  1  1  0.02236400  0.03228500  0.99969500  1
  C  2  1  0.02206400  0.05739800  0.02586300  1
  C  3  1  0.97547100  0.02566900  0.05720000  1
  C  4  1  0.97580000  0.99936100  0.03223600  1
  C  5  1  0.95346000  0.97105600  0.03704900  1
  C  6  1  0.93123500  0.96895800  0.06541500  1
  C  7  1  0.93090500  0.99575800  0.08924300  1
  C  8  1  0.95291400  0.02369100  0.08531000  1
  C  9  1  0.04487700  0.08533200  0.02442900  1
  C  10  1  0.06816900  0.08860600  0.99747900  1
  C  11  1  0.06858600  0.06451300  0.97091900  1
  C  12  1  0.04561700  0.03672100  0.97208000  1
  C  13  1  0.02236300  0.97047400  0.00301100  1
  C  14  1  0.02209600  0.94537200  0.97683200  1
  C  15  1  0.97553700  0.97711000  0.94545100  1
  C  16  1  0.97582800  0.00340300  0.97043100  1
  C  17  1  0.95302600  0.97910600  0.91730700  1
  C  18  1  0.93101800  0.00704000  0.91336000  1
  C  19  1  0.93129900  0.03381600  0.93721400  1
  C  20  1  0.95348300  0.03170300  0.96561000  1
  C  21  1  0.04558500  0.96602900  0.03065000  1
  C  22  1  0.06856500  0.93824800  0.03181900  1
  C  23  1  0.06818700  0.91417000  0.00524500  1
  C  24  1  0.04491100  0.91744300  0.97827900  1
  C  37  1  0.99907000  0.00137900  0.00134400  1
  C  38  1  0.99849000  0.94714100  0.94736800  1
  C  41  1  0.99842100  0.05564200  0.05529500  1
  C  52  1  0.48036300  0.97044400  0.49969600  1
  C  53  1  0.48066400  0.94533100  0.52586500  1
  C  54  1  0.52725700  0.97706100  0.55720300  1
  C  55  1  0.52692800  0.00337000  0.53223800  1
  C  56  1  0.54926800  0.03167600  0.53705100  1
  C  57  1  0.57149300  0.03377400  0.56541600  1
  C  58  1  0.57182500  0.00697300  0.58924200  1
  C  59  1  0.54981100  0.97904300  0.58531300  1
  C  60  1  0.45785200  0.91739700  0.52443300  1
  C  61  1  0.43455700  0.91412600  0.49748200  1
  C  62  1  0.43413600  0.93821800  0.47092400  1
  C  63  1  0.45710600  0.96600900  0.47208300  1
  C  64  1  0.48036100  0.03225500  0.50301500  1
  C  65  1  0.48062900  0.05735700  0.47683500  1
  C  66  1  0.52718500  0.02562000  0.44545100  1
  C  67  1  0.52689700  0.99932700  0.47043100  1
  C  68  1  0.54969900  0.02362500  0.41730500  1
  C  69  1  0.57170700  0.99569400  0.41336100  1
  C  70  1  0.57142900  0.96891700  0.43721500  1
  C  71  1  0.54924500  0.97102800  0.46561100  1
  C  72  1  0.45713200  0.03669200  0.53064800  1
  C  73  1  0.43416600  0.06448700  0.53183000  1
  C  74  1  0.43454900  0.08856800  0.50525900  1
  C  75  1  0.45781100  0.08528600  0.47828200  1
  C  88  1  0.50365600  0.00135200  0.50134500  1
  C  89  1  0.50423500  0.05559000  0.44737100  1
  C  92  1  0.50430900  0.94708700  0.55529800  1
  C  103  1  0.22044800  0.77374900  0.24857900  1
  C  104  1  0.19371600  0.77236500  0.27306200  1
  C  105  1  0.22454700  0.72603000  0.30565800  1
  C  106  1  0.25224500  0.72725800  0.28228200  1
  C  107  1  0.28086500  0.70573000  0.28870000  1
  C  108  1  0.28202400  0.68351500  0.31712000  1
  C  109  1  0.25379700  0.68211300  0.33920200  1
  C  110  1  0.22547900  0.70328200  0.33367400  1
  C  111  1  0.16535100  0.79449600  0.27016500  1
  C  112  1  0.16330500  0.81825800  0.24350300  1
  C  113  1  0.18923600  0.81997300  0.21879600  1
  C  114  1  0.21739600  0.79758200  0.22129100  1
  C  115  1  0.28224900  0.77373600  0.25414400  1
  C  116  1  0.30898300  0.77233900  0.22966200  1
  C  117  1  0.27813000  0.72602000  0.19706400  1
  C  118  1  0.25043400  0.72725800  0.22044200  1
  C  119  1  0.27718800  0.70327400  0.16904800  1
  C  120  1  0.24885600  0.68212600  0.16351600  1
  C  121  1  0.22063000  0.68354100  0.18559800  1
  C  122  1  0.22180300  0.70574300  0.21402500  1
  C  123  1  0.28530700  0.79757200  0.28142700  1
  C  124  1  0.31347600  0.81995300  0.28392100  1
  C  125  1  0.33940600  0.81823000  0.25921400  1
  C  126  1  0.33735800  0.79445500  0.23256200  1
  C  139  1  0.25134400  0.75055800  0.25136200  1
  C  140  1  0.30857200  0.74814300  0.20062200  1
  C  143  1  0.19411700  0.74816900  0.30210200  1
  C  154  1  0.28227200  0.22897600  0.74858500  1
  C  155  1  0.30900600  0.23036600  0.77306700  1
  C  156  1  0.27816600  0.27669300  0.80566600  1
  C  157  1  0.25046800  0.27546000  0.78228900  1
  C  158  1  0.22184400  0.29698500  0.78870800  1
  C  159  1  0.22067800  0.31919000  0.81713400  1
  C  160  1  0.24890700  0.32060000  0.83921200  1
  C  161  1  0.27723200  0.29944400  0.83367900  1
  C  162  1  0.33737600  0.20824600  0.77016400  1
  C  163  1  0.33942700  0.18448000  0.74350400  1
  C  164  1  0.31349400  0.18276000  0.71880000  1
  C  165  1  0.28532500  0.20514100  0.72129900  1
  C  166  1  0.22047200  0.22897700  0.75415300  1
  C  167  1  0.19373600  0.23037000  0.72967400  1
  C  168  1  0.22457700  0.27669600  0.69707500  1
  C  169  1  0.25227600  0.27546000  0.72044900  1
  C  170  1  0.22551500  0.29944200  0.66905700  1
  C  171  1  0.25384700  0.32058700  0.66351600  1
  C  172  1  0.28207000  0.31918500  0.68560400  1
  C  173  1  0.28090300  0.29698000  0.71403000  1
  C  174  1  0.21741900  0.20514000  0.78143600  1
  C  175  1  0.18925800  0.18275100  0.78392800  1
  C  176  1  0.16332300  0.18447500  0.75922600  1
  C  177  1  0.16536700  0.20824700  0.73257400  1
  C  190  1  0.25137200  0.25216000  0.75137000  1
  C  191  1  0.19413900  0.25457000  0.70063700  1
  C  194  1  0.30860200  0.25456400  0.80210700  1
  C  205  1  0.78223300  0.23050300  0.75422200  1
  C  206  1  0.80799900  0.23037500  0.72870100  1
  C  207  1  0.77717200  0.27661900  0.69588000  1
  C  208  1  0.75045900  0.27697100  0.72039300  1
  C  209  1  0.72252500  0.29959000  0.71487300  1
  C  210  1  0.72117400  0.32151600  0.68624900  1
  C  211  1  0.74834500  0.32119400  0.66283700  1
  C  212  1  0.77591400  0.29883900  0.66745600  1
  C  213  1  0.83628600  0.20814700  0.73167500  1
  C  214  1  0.83965600  0.18640000  0.75989500  1
  C  215  1  0.81509400  0.18671700  0.78603200  1
  C  216  1  0.78648900  0.20847900  0.78286900  1
  C  217  1  0.72054100  0.23050000  0.74849800  1
  C  218  1  0.69476700  0.23040400  0.77401400  1
  C  219  1  0.72557800  0.27670300  0.80677400  1
  C  220  1  0.75231000  0.27700700  0.78227600  1
  C  221  1  0.72681900  0.29897400  0.83515500  1
  C  222  1  0.75439100  0.32133000  0.83975800  1
  C  223  1  0.78158200  0.32159800  0.81637100  1
  C  224  1  0.78024900  0.29962300  0.78778300  1
  C  225  1  0.71628700  0.20844400  0.71987500  1
  C  226  1  0.68768200  0.18667800  0.71673200  1
  C  227  1  0.66310800  0.18640700  0.74285500  1
  C  228  1  0.66648300  0.20817100  0.77106000  1
  C  241  1  0.75138600  0.25373200  0.75134700  1
  C  242  1  0.69595400  0.25336100  0.80404200  1
  C  245  1  0.80679700  0.25328200  0.69863500  1
  C  256  1  0.72049200  0.77221900  0.25421200  1
  C  257  1  0.69472900  0.77236200  0.22868800  1
  C  258  1  0.72556000  0.72614300  0.19584100  1
  C  259  1  0.75227400  0.72577700  0.22035800  1
  C  260  1  0.78021100  0.70316400  0.21482400  1
  C  261  1  0.78156400  0.68125300  0.18618900  1
  C  262  1  0.75439600  0.68158700  0.16277400  1
  C  263  1  0.72682400  0.70393800  0.16740700  1
  C  264  1  0.66644500  0.79459000  0.23167100  1
  C  265  1  0.66305700  0.81629900  0.25991600  1
  C  266  1  0.68762600  0.81598800  0.28604500  1
  C  267  1  0.71623600  0.79423000  0.28286900  1
  C  268  1  0.78218400  0.77224500  0.24848000  1
  C  269  1  0.80796900  0.77232700  0.27398400  1
  C  270  1  0.77719000  0.72598700  0.30671300  1
  C  271  1  0.75043600  0.72570800  0.28223800  1
  C  272  1  0.77597800  0.70367500  0.33506600  1
  C  273  1  0.74840600  0.68132400  0.33967700  1
  C  274  1  0.72119500  0.68107700  0.31631000  1
  C  275  1  0.72250200  0.70308500  0.28774600  1
  C  276  1  0.78642500  0.79431400  0.21986600  1
  C  277  1  0.81502800  0.81608500  0.21672600  1
  C  278  1  0.83959700  0.81636600  0.24285600  1
  C  279  1  0.83624000  0.79457500  0.27104000  1
  C  292  1  0.75134500  0.74900100  0.25132400  1
  C  293  1  0.80680700  0.74933300  0.30398400  1
  C  296  1  0.69593600  0.74947600  0.19860700  1
  C  307  1  0.52307000  0.53206700  0.49762500  1
  C  308  1  0.52272800  0.55889300  0.52203600  1
  C  309  1  0.47637800  0.52913900  0.55563500  1
  C  310  1  0.47655400  0.50135000  0.53233500  1
  C  311  1  0.45484200  0.47304800  0.53945300  1
  C  312  1  0.43344600  0.47229800  0.56850800  1
  C  313  1  0.43290800  0.50068900  0.59041700  1
  C  314  1  0.45424900  0.52872000  0.58415700  1
  C  315  1  0.54487400  0.58713400  0.51820600  1
  C  316  1  0.56696600  0.58944700  0.49016000  1
  C  317  1  0.56701200  0.56386900  0.46501600  1
  C  318  1  0.54532100  0.53532500  0.46903000  1
  C  319  1  0.52304200  0.47055600  0.50515200  1
  C  320  1  0.52274800  0.44374800  0.48072300  1
  C  321  1  0.47649300  0.47354100  0.44702400  1
  C  322  1  0.47661800  0.50131200  0.47034700  1
  C  323  1  0.45443800  0.47398500  0.41844900  1
  C  324  1  0.43308900  0.50201100  0.41217600  1
  C  325  1  0.43356400  0.53037900  0.43411500  1
  C  326  1  0.45491600  0.52961900  0.46320600  1
  C  327  1  0.54522300  0.46727300  0.53379600  1
  C  328  1  0.56689200  0.43871400  0.53784500  1
  C  329  1  0.56689000  0.41314900  0.51268900  1
  C  330  1  0.54486900  0.41549000  0.48458900  1
  C  343  1  0.49981600  0.50131900  0.50136500  1
  C  344  1  0.49941200  0.44374100  0.45098100  1
  C  347  1  0.49930500  0.55893600  0.55170800  1
  C  358  1  0.97964000  0.47062500  0.99763200  1
  C  359  1  0.97994900  0.44382500  0.02206900  1
  C  360  1  0.02626300  0.47360000  0.05569700  1
  C  361  1  0.02612500  0.50136300  0.03236700  1
  C  362  1  0.04784700  0.52966200  0.03947400  1
  C  363  1  0.06922000  0.53042800  0.06854700  1
  C  364  1  0.06970300  0.50207000  0.09050100  1
  C  365  1  0.04834500  0.47404700  0.08425200  1
  C  366  1  0.95780600  0.41557900  0.01824000  1
  C  367  1  0.93575100  0.41323800  0.99016900  1
  C  368  1  0.93574100  0.43879000  0.96499800  1
  C  369  1  0.95743000  0.46733700  0.96901100  1
  C  370  1  0.97966300  0.53213900  0.00512900  1
  C  371  1  0.97997200  0.55893400  0.98068700  1
  C  372  1  0.02625800  0.52913400  0.94704700  1
  C  373  1  0.02611600  0.50137100  0.97038000  1
  C  374  1  0.04834600  0.52868200  0.91849500  1
  C  375  1  0.06969700  0.50065300  0.91224700  1
  C  376  1  0.06919500  0.47228800  0.93419100  1
  C  377  1  0.04782000  0.47306100  0.96326400  1
  C  378  1  0.95746300  0.53544200  0.03375900  1
  C  379  1  0.93579500  0.56400700  0.03778000  1
  C  380  1  0.93582000  0.58955900  0.01261400  1
  C  381  1  0.95785400  0.58720000  0.98452900  1
  C  394  1  0.00289100  0.50137600  0.00137600  1
  C  395  1  0.00333200  0.55893100  0.95096600  1
  C  398  1  0.00332800  0.44380700  0.05177600  1
  C  409  1  0.85482900  0.84451400  0.13640600  1
  C  411  1  0.90552200  0.87894100  0.13702200  1
  C  412  1  0.90103400  0.88739500  0.10231000  1
  C  414  1  0.84988600  0.85323600  0.10154000  1
  C  416  1  0.82363000  0.84018900  0.08177300  1
  C  420  1  0.83333900  0.82063700  0.15670100  1
  C  423  1  0.92558200  0.90890200  0.08304700  1
  C  426  1  0.64790600  0.15822200  0.63640700  1
  C  428  1  0.59721300  0.12379300  0.63702000  1
  C  429  1  0.60171200  0.11532800  0.60230900  1
  C  431  1  0.65286700  0.14947500  0.60155100  1
  C  433  1  0.67913900  0.16250500  0.58179000  1
  C  437  1  0.66938600  0.18210800  0.65669900  1
  C  440  1  0.57715800  0.09383200  0.58304100  1
  C  443  1  0.40775100  0.61057100  0.39076800  1
  C  445  1  0.36605600  0.65521800  0.39487300  1
  C  446  1  0.36248400  0.65611000  0.35903700  1
  C  448  1  0.40382500  0.61089800  0.35469200  1
  C  450  1  0.42180900  0.58965300  0.33295900  1
  C  454  1  0.43162300  0.58813700  0.41002100  1
  C  457  1  0.33980200  0.68061700  0.34114000  1
  C  460  1  0.09495500  0.39211100  0.89079300  1
  C  462  1  0.13663100  0.34744300  0.89488000  1
  C  463  1  0.14020800  0.34657300  0.85904700  1
  C  465  1  0.09888700  0.39180200  0.85471700  1
  C  467  1  0.08093000  0.41308200  0.83299700  1
  C  471  1  0.07108900  0.41454500  0.91005600  1
  C  474  1  0.16289400  0.32207500  0.84113900  1
  C  477  1  0.64791400  0.84442800  0.36639800  1
  C  479  1  0.59709800  0.87867800  0.36581600  1
  C  480  1  0.60168100  0.88729500  0.40047800  1
  C  482  1  0.65292600  0.85328400  0.40122000  1
  C  484  1  0.67931500  0.84048000  0.42091600  1
  C  488  1  0.66941400  0.82055300  0.34610800  1
  C  491  1  0.57713800  0.90882100  0.41972800  1
  C  494  1  0.85482400  0.15830000  0.86638700  1
  C  496  1  0.90563200  0.12403700  0.86580300  1
  C  497  1  0.90105700  0.11543700  0.90046700  1
  C  499  1  0.84982000  0.14945900  0.90121500  1
  C  501  1  0.82344100  0.16228000  0.92091500  1
  C  505  1  0.83332100  0.18216900  0.84609200  1
  C  508  1  0.92559700  0.09391200  0.91972000  1
  C  511  1  0.09502700  0.61066600  0.11177000  1
  C  513  1  0.13663100  0.65540700  0.10781500  1
  C  514  1  0.14017700  0.65620400  0.14365600  1
  C  516  1  0.09894500  0.61088300  0.14784600  1
  C  518  1  0.08093700  0.58953100  0.16946800  1
  C  522  1  0.07117200  0.58826200  0.09246500  1
  C  525  1  0.16282600  0.68068600  0.16163100  1
  C  528  1  0.40771800  0.39210800  0.61188600  1
  C  530  1  0.36609700  0.34738700  0.60785500  1
  C  531  1  0.36253500  0.34654700  0.64369400  1
  C  533  1  0.40380200  0.39182700  0.64796200  1
  C  535  1  0.42177300  0.41316700  0.66966400  1
  C  539  1  0.43156500  0.41454500  0.59261000  1
  C  542  1  0.33986600  0.32205700  0.66163200  1
  C  545  1  0.15430900  0.14667100  0.86348200  1
  C  547  1  0.11722700  0.09783600  0.86114600  1
  C  548  1  0.10613600  0.10395400  0.89481700  1
  C  550  1  0.14372500  0.15244700  0.89765800  1
  C  552  1  0.15561200  0.17936500  0.91725100  1
  C  556  1  0.17784000  0.17004600  0.84489000  1
  C  559  1  0.07924300  0.08365000  0.91197600  1
  C  562  1  0.34838600  0.85607300  0.36348200  1
  C  564  1  0.38544500  0.90492700  0.36116200  1
  C  565  1  0.39653800  0.89880500  0.39483000  1
  C  567  1  0.35894500  0.85031300  0.39766900  1
  C  569  1  0.34705500  0.82339500  0.41726200  1
  C  573  1  0.32487900  0.83268100  0.34488000  1
  C  576  1  0.42344800  0.91908900  0.41198500  1
  C  579  1  0.59569200  0.39887400  0.61753100  1
  C  581  1  0.63069000  0.34863100  0.61518800  1
  C  582  1  0.63934000  0.35223300  0.64994600  1
  C  584  1  0.60446900  0.40283900  0.65250400  1
  C  586  1  0.59105500  0.42818400  0.67315700  1
  C  590  1  0.57161500  0.42076700  0.59794600  1
  C  593  1  0.66134300  0.32746200  0.66831400  1
  C  596  1  0.90702800  0.60388000  0.11746800  1
  C  598  1  0.87206300  0.65414600  0.11513800  1
  C  599  1  0.86340500  0.65053900  0.14989600  1
  C  601  1  0.89825600  0.59992000  0.15244400  1
  C  603  1  0.91161600  0.57452300  0.17307200  1
  C  607  1  0.93108700  0.58197600  0.09787500  1
  C  610  1  0.84139700  0.67530700  0.16826400  1
  C  613  1  0.34847000  0.14670600  0.63923800  1
  C  615  1  0.38557700  0.09788700  0.64160500  1
  C  616  1  0.39664300  0.10397100  0.60792100  1
  C  618  1  0.35903000  0.15244800  0.60504600  1
  C  620  1  0.34709900  0.17928300  0.58542000  1
  C  624  1  0.32493500  0.17007500  0.65783500  1
  C  627  1  0.42353500  0.08365800  0.59076900  1
  C  630  1  0.15426500  0.85602900  0.13923200  1
  C  632  1  0.11716700  0.90485300  0.14159600  1
  C  633  1  0.10610500  0.89877400  0.10790900  1
  C  635  1  0.14370500  0.85028700  0.10503900  1
  C  637  1  0.15563100  0.82344800  0.08541300  1
  C  641  1  0.17779400  0.83265500  0.15783100  1
  C  644  1  0.07920900  0.91908200  0.09075600  1
  C  647  1  0.90698200  0.39887700  0.88531600  1
  C  649  1  0.87183800  0.34873800  0.88764500  1
  C  650  1  0.86335700  0.35226100  0.85283500  1
  C  652  1  0.89836300  0.40277500  0.85029500  1
  C  654  1  0.91200200  0.42804100  0.82966500  1
  C  658  1  0.93106100  0.42073700  0.90493500  1
  C  661  1  0.84137400  0.32749100  0.83444000  1
  C  664  1  0.59584500  0.60377800  0.38536000  1
  C  666  1  0.63115200  0.65379900  0.38775800  1
  C  667  1  0.63948800  0.65039300  0.35289900  1
  C  669  1  0.60430100  0.60001200  0.35028500  1
  C  671  1  0.59050600  0.57489600  0.32954800  1
  C  675  1  0.57175300  0.58192000  0.40496600  1
  C  678  1  0.66145600  0.67518400  0.33451900  1
  C  681  1  0.02236400  0.03228500  0.35713700  1
  C  682  1  0.02206400  0.05739800  0.38330500  1
  C  683  1  0.97547100  0.02566900  0.41464200  1
  C  684  1  0.97580000  0.99936100  0.38967800  1
  C  685  1  0.95346000  0.97105600  0.39449100  1
  C  686  1  0.93123500  0.96895800  0.42285700  1
  C  687  1  0.93090500  0.99575800  0.44668500  1
  C  688  1  0.95291400  0.02369100  0.44275200  1
  C  689  1  0.04487700  0.08533200  0.38187100  1
  C  690  1  0.06816900  0.08860600  0.35492100  1
  C  691  1  0.06858600  0.06451300  0.32836100  1
  C  692  1  0.04561700  0.03672100  0.32952200  1
  C  693  1  0.02236300  0.97047400  0.36045300  1
  C  694  1  0.02209600  0.94537200  0.33427400  1
  C  695  1  0.97553700  0.97711000  0.30289300  1
  C  696  1  0.97582800  0.00340300  0.32787300  1
  C  697  1  0.95302600  0.97910600  0.27474900  1
  C  698  1  0.93101800  0.00704000  0.27080200  1
  C  699  1  0.93129900  0.03381600  0.29465600  1
  C  700  1  0.95348300  0.03170300  0.32305200  1
  C  701  1  0.04558500  0.96602900  0.38809200  1
  C  702  1  0.06856500  0.93824800  0.38926100  1
  C  703  1  0.06818700  0.91417000  0.36268700  1
  C  704  1  0.04491100  0.91744300  0.33572100  1
  C  717  1  0.99907000  0.00137900  0.35878600  1
  C  718  1  0.99849000  0.94714100  0.30481000  1
  C  721  1  0.99842100  0.05564200  0.41273700  1
  C  732  1  0.48036300  0.97044400  0.85713800  1
  C  733  1  0.48066400  0.94533100  0.88330700  1
  C  734  1  0.52725700  0.97706100  0.91464500  1
  C  735  1  0.52692800  0.00337000  0.88968000  1
  C  736  1  0.54926800  0.03167600  0.89449300  1
  C  737  1  0.57149300  0.03377400  0.92285800  1
  C  738  1  0.57182500  0.00697300  0.94668400  1
  C  739  1  0.54981100  0.97904300  0.94275500  1
  C  740  1  0.45785200  0.91739700  0.88187500  1
  C  741  1  0.43455700  0.91412600  0.85492400  1
  C  742  1  0.43413600  0.93821800  0.82836600  1
  C  743  1  0.45710600  0.96600900  0.82952500  1
  C  744  1  0.48036100  0.03225500  0.86045700  1
  C  745  1  0.48062900  0.05735700  0.83427700  1
  C  746  1  0.52718500  0.02562000  0.80289300  1
  C  747  1  0.52689700  0.99932700  0.82787300  1
  C  748  1  0.54969900  0.02362500  0.77474700  1
  C  749  1  0.57170700  0.99569400  0.77080300  1
  C  750  1  0.57142900  0.96891700  0.79465700  1
  C  751  1  0.54924500  0.97102800  0.82305300  1
  C  752  1  0.45713200  0.03669200  0.88809000  1
  C  753  1  0.43416600  0.06448700  0.88927200  1
  C  754  1  0.43454900  0.08856800  0.86270100  1
  C  755  1  0.45781100  0.08528600  0.83572400  1
  C  768  1  0.50365600  0.00135200  0.85878700  1
  C  769  1  0.50423500  0.05559000  0.80481300  1
  C  772  1  0.50430900  0.94708700  0.91274000  1
  C  783  1  0.22044800  0.77374900  0.60602100  1
  C  784  1  0.19371600  0.77236500  0.63050400  1
  C  785  1  0.22454700  0.72603000  0.66310000  1
  C  786  1  0.25224500  0.72725800  0.63972400  1
  C  787  1  0.28086500  0.70573000  0.64614200  1
  C  788  1  0.28202400  0.68351500  0.67456200  1
  C  789  1  0.25379700  0.68211300  0.69664400  1
  C  790  1  0.22547900  0.70328200  0.69111600  1
  C  791  1  0.16535100  0.79449600  0.62760700  1
  C  792  1  0.16330500  0.81825800  0.60094500  1
  C  793  1  0.18923600  0.81997300  0.57623800  1
  C  794  1  0.21739600  0.79758200  0.57873300  1
  C  795  1  0.28224900  0.77373600  0.61158600  1
  C  796  1  0.30898300  0.77233900  0.58710400  1
  C  797  1  0.27813000  0.72602000  0.55450600  1
  C  798  1  0.25043400  0.72725800  0.57788400  1
  C  799  1  0.27718800  0.70327400  0.52649000  1
  C  800  1  0.24885600  0.68212600  0.52095800  1
  C  801  1  0.22063000  0.68354100  0.54304000  1
  C  802  1  0.22180300  0.70574300  0.57146700  1
  C  803  1  0.28530700  0.79757200  0.63886900  1
  C  804  1  0.31347600  0.81995300  0.64136300  1
  C  805  1  0.33940600  0.81823000  0.61665600  1
  C  806  1  0.33735800  0.79445500  0.59000400  1
  C  819  1  0.25134400  0.75055800  0.60880400  1
  C  820  1  0.30857200  0.74814300  0.55806400  1
  C  823  1  0.19411700  0.74816900  0.65954400  1
  C  834  1  0.28227200  0.22897600  0.10602700  1
  C  835  1  0.30900600  0.23036600  0.13050900  1
  C  836  1  0.27816600  0.27669300  0.16310800  1
  C  837  1  0.25046800  0.27546000  0.13973100  1
  C  838  1  0.22184400  0.29698500  0.14615000  1
  C  839  1  0.22067800  0.31919000  0.17457600  1
  C  840  1  0.24890700  0.32060000  0.19665400  1
  C  841  1  0.27723200  0.29944400  0.19112100  1
  C  842  1  0.33737600  0.20824600  0.12760600  1
  C  843  1  0.33942700  0.18448000  0.10094600  1
  C  844  1  0.31349400  0.18276000  0.07624190  1
  C  845  1  0.28532500  0.20514100  0.07874090  1
  C  846  1  0.22047200  0.22897700  0.11159500  1
  C  847  1  0.19373600  0.23037000  0.08711590  1
  C  848  1  0.22457700  0.27669600  0.05451690  1
  C  849  1  0.25227600  0.27546000  0.07789090  1
  C  850  1  0.22551500  0.29944200  0.02649890  1
  C  851  1  0.25384700  0.32058700  0.02095790  1
  C  852  1  0.28207000  0.31918500  0.04304590  1
  C  853  1  0.28090300  0.29698000  0.07147190  1
  C  854  1  0.21741900  0.20514000  0.13887800  1
  C  855  1  0.18925800  0.18275100  0.14137000  1
  C  856  1  0.16332300  0.18447500  0.11666800  1
  C  857  1  0.16536700  0.20824700  0.09001590  1
  C  870  1  0.25137200  0.25216000  0.10881200  1
  C  871  1  0.19413900  0.25457000  0.05807890  1
  C  874  1  0.30860200  0.25456400  0.15954900  1
  C  885  1  0.78223300  0.23050300  0.11166400  1
  C  886  1  0.80799900  0.23037500  0.08614290  1
  C  887  1  0.77717200  0.27661900  0.05332190  1
  C  888  1  0.75045900  0.27697100  0.07783490  1
  C  889  1  0.72252500  0.29959000  0.07231490  1
  C  890  1  0.72117400  0.32151600  0.04369090  1
  C  891  1  0.74834500  0.32119400  0.02027890  1
  C  892  1  0.77591400  0.29883900  0.02489790  1
  C  893  1  0.83628600  0.20814700  0.08911690  1
  C  894  1  0.83965600  0.18640000  0.11733700  1
  C  895  1  0.81509400  0.18671700  0.14347400  1
  C  896  1  0.78648900  0.20847900  0.14031100  1
  C  897  1  0.72054100  0.23050000  0.10594000  1
  C  898  1  0.69476700  0.23040400  0.13145600  1
  C  899  1  0.72557800  0.27670300  0.16421600  1
  C  900  1  0.75231000  0.27700700  0.13971800  1
  C  901  1  0.72681900  0.29897400  0.19259700  1
  C  902  1  0.75439100  0.32133000  0.19720000  1
  C  903  1  0.78158200  0.32159800  0.17381300  1
  C  904  1  0.78024900  0.29962300  0.14522500  1
  C  905  1  0.71628700  0.20844400  0.07731690  1
  C  906  1  0.68768200  0.18667800  0.07417390  1
  C  907  1  0.66310800  0.18640700  0.10029700  1
  C  908  1  0.66648300  0.20817100  0.12850200  1
  C  921  1  0.75138600  0.25373200  0.10878900  1
  C  922  1  0.69595400  0.25336100  0.16148400  1
  C  925  1  0.80679700  0.25328200  0.05607690  1
  C  936  1  0.72049200  0.77221900  0.61165400  1
  C  937  1  0.69472900  0.77236200  0.58613000  1
  C  938  1  0.72556000  0.72614300  0.55328300  1
  C  939  1  0.75227400  0.72577700  0.57780000  1
  C  940  1  0.78021100  0.70316400  0.57226600  1
  C  941  1  0.78156400  0.68125300  0.54363100  1
  C  942  1  0.75439600  0.68158700  0.52021600  1
  C  943  1  0.72682400  0.70393800  0.52484900  1
  C  944  1  0.66644500  0.79459000  0.58911300  1
  C  945  1  0.66305700  0.81629900  0.61735800  1
  C  946  1  0.68762600  0.81598800  0.64348700  1
  C  947  1  0.71623600  0.79423000  0.64031100  1
  C  948  1  0.78218400  0.77224500  0.60592200  1
  C  949  1  0.80796900  0.77232700  0.63142600  1
  C  950  1  0.77719000  0.72598700  0.66415500  1
  C  951  1  0.75043600  0.72570800  0.63968000  1
  C  952  1  0.77597800  0.70367500  0.69250800  1
  C  953  1  0.74840600  0.68132400  0.69711900  1
  C  954  1  0.72119500  0.68107700  0.67375200  1
  C  955  1  0.72250200  0.70308500  0.64518800  1
  C  956  1  0.78642500  0.79431400  0.57730800  1
  C  957  1  0.81502800  0.81608500  0.57416800  1
  C  958  1  0.83959700  0.81636600  0.60029800  1
  C  959  1  0.83624000  0.79457500  0.62848200  1
  C  972  1  0.75134500  0.74900100  0.60876600  1
  C  973  1  0.80680700  0.74933300  0.66142600  1
  C  976  1  0.69593600  0.74947600  0.55604900  1
  C  987  1  0.52307000  0.53206700  0.85506700  1
  C  988  1  0.52272800  0.55889300  0.87947800  1
  C  989  1  0.47637800  0.52913900  0.91307700  1
  C  990  1  0.47655400  0.50135000  0.88977700  1
  C  991  1  0.45484200  0.47304800  0.89689500  1
  C  992  1  0.43344600  0.47229800  0.92595000  1
  C  993  1  0.43290800  0.50068900  0.94785900  1
  C  994  1  0.45424900  0.52872000  0.94159900  1
  C  995  1  0.54487400  0.58713400  0.87564800  1
  C  996  1  0.56696600  0.58944700  0.84760200  1
  C  997  1  0.56701200  0.56386900  0.82245800  1
  C  998  1  0.54532100  0.53532500  0.82647200  1
  C  999  1  0.52304200  0.47055600  0.86259400  1
  C  1000  1  0.52274800  0.44374800  0.83816500  1
  C  1001  1  0.47649300  0.47354100  0.80446600  1
  C  1002  1  0.47661800  0.50131200  0.82778900  1
  C  1003  1  0.45443800  0.47398500  0.77589100  1
  C  1004  1  0.43308900  0.50201100  0.76961800  1
  C  1005  1  0.43356400  0.53037900  0.79155700  1
  C  1006  1  0.45491600  0.52961900  0.82064800  1
  C  1007  1  0.54522300  0.46727300  0.89123800  1
  C  1008  1  0.56689200  0.43871400  0.89528700  1
  C  1009  1  0.56689000  0.41314900  0.87013100  1
  C  1010  1  0.54486900  0.41549000  0.84203100  1
  C  1023  1  0.49981600  0.50131900  0.85880700  1
  C  1024  1  0.49941200  0.44374100  0.80842300  1
  C  1027  1  0.49930500  0.55893600  0.90915000  1
  C  1038  1  0.97964000  0.47062500  0.35507400  1
  C  1039  1  0.97994900  0.44382500  0.37951100  1
  C  1040  1  0.02626300  0.47360000  0.41313900  1
  C  1041  1  0.02612500  0.50136300  0.38980900  1
  C  1042  1  0.04784700  0.52966200  0.39691600  1
  C  1043  1  0.06922000  0.53042800  0.42598900  1
  C  1044  1  0.06970300  0.50207000  0.44794300  1
  C  1045  1  0.04834500  0.47404700  0.44169400  1
  C  1046  1  0.95780600  0.41557900  0.37568200  1
  C  1047  1  0.93575100  0.41323800  0.34761100  1
  C  1048  1  0.93574100  0.43879000  0.32244000  1
  C  1049  1  0.95743000  0.46733700  0.32645300  1
  C  1050  1  0.97966300  0.53213900  0.36257100  1
  C  1051  1  0.97997200  0.55893400  0.33812900  1
  C  1052  1  0.02625800  0.52913400  0.30448900  1
  C  1053  1  0.02611600  0.50137100  0.32782200  1
  C  1054  1  0.04834600  0.52868200  0.27593700  1
  C  1055  1  0.06969700  0.50065300  0.26968900  1
  C  1056  1  0.06919500  0.47228800  0.29163300  1
  C  1057  1  0.04782000  0.47306100  0.32070600  1
  C  1058  1  0.95746300  0.53544200  0.39120100  1
  C  1059  1  0.93579500  0.56400700  0.39522200  1
  C  1060  1  0.93582000  0.58955900  0.37005600  1
  C  1061  1  0.95785400  0.58720000  0.34197100  1
  C  1074  1  0.00289100  0.50137600  0.35881800  1
  C  1075  1  0.00333200  0.55893100  0.30840800  1
  C  1078  1  0.00332800  0.44380700  0.40921800  1
  C  1089  1  0.85482900  0.84451400  0.49384800  1
  C  1091  1  0.90552200  0.87894100  0.49446400  1
  C  1092  1  0.90103400  0.88739500  0.45975200  1
  C  1094  1  0.84988600  0.85323600  0.45898200  1
  C  1096  1  0.82363000  0.84018900  0.43921500  1
  C  1100  1  0.83333900  0.82063700  0.51414300  1
  C  1103  1  0.92558200  0.90890200  0.44048900  1
  C  1106  1  0.64790600  0.15822200  0.99384900  1
  C  1108  1  0.59721300  0.12379300  0.99446200  1
  C  1109  1  0.60171200  0.11532800  0.95975100  1
  C  1111  1  0.65286700  0.14947500  0.95899300  1
  C  1113  1  0.67913900  0.16250500  0.93923200  1
  C  1117  1  0.66938600  0.18210800  0.01414090  1
  C  1120  1  0.57715800  0.09383200  0.94048300  1
  C  1123  1  0.40775100  0.61057100  0.74821000  1
  C  1125  1  0.36605600  0.65521800  0.75231500  1
  C  1126  1  0.36248400  0.65611000  0.71647900  1
  C  1128  1  0.40382500  0.61089800  0.71213400  1
  C  1130  1  0.42180900  0.58965300  0.69040100  1
  C  1134  1  0.43162300  0.58813700  0.76746300  1
  C  1137  1  0.33980200  0.68061700  0.69858200  1
  C  1140  1  0.09495500  0.39211100  0.24823500  1
  C  1142  1  0.13663100  0.34744300  0.25232200  1
  C  1143  1  0.14020800  0.34657300  0.21648900  1
  C  1145  1  0.09888700  0.39180200  0.21215900  1
  C  1147  1  0.08093000  0.41308200  0.19043900  1
  C  1151  1  0.07108900  0.41454500  0.26749800  1
  C  1154  1  0.16289400  0.32207500  0.19858100  1
  C  1157  1  0.64791400  0.84442800  0.72384000  1
  C  1159  1  0.59709800  0.87867800  0.72325800  1
  C  1160  1  0.60168100  0.88729500  0.75792000  1
  C  1162  1  0.65292600  0.85328400  0.75866200  1
  C  1164  1  0.67931500  0.84048000  0.77835800  1
  C  1168  1  0.66941400  0.82055300  0.70355000  1
  C  1171  1  0.57713800  0.90882100  0.77717000  1
  C  1174  1  0.85482400  0.15830000  0.22382900  1
  C  1176  1  0.90563200  0.12403700  0.22324500  1
  C  1177  1  0.90105700  0.11543700  0.25790900  1
  C  1179  1  0.84982000  0.14945900  0.25865700  1
  C  1181  1  0.82344100  0.16228000  0.27835700  1
  C  1185  1  0.83332100  0.18216900  0.20353400  1
  C  1188  1  0.92559700  0.09391200  0.27716200  1
  C  1191  1  0.09502700  0.61066600  0.46921200  1
  C  1193  1  0.13663100  0.65540700  0.46525700  1
  C  1194  1  0.14017700  0.65620400  0.50109800  1
  C  1196  1  0.09894500  0.61088300  0.50528800  1
  C  1198  1  0.08093700  0.58953100  0.52691000  1
  C  1202  1  0.07117200  0.58826200  0.44990700  1
  C  1205  1  0.16282600  0.68068600  0.51907300  1
  C  1208  1  0.40771800  0.39210800  0.96932800  1
  C  1210  1  0.36609700  0.34738700  0.96529700  1
  C  1211  1  0.36253500  0.34654700  0.00113594  1
  C  1213  1  0.40380200  0.39182700  0.00540394  1
  C  1215  1  0.42177300  0.41316700  0.02710590  1
  C  1219  1  0.43156500  0.41454500  0.95005200  1
  C  1222  1  0.33986600  0.32205700  0.01907390  1
  C  1225  1  0.15430900  0.14667100  0.22092400  1
  C  1227  1  0.11722700  0.09783600  0.21858800  1
  C  1228  1  0.10613600  0.10395400  0.25225900  1
  C  1230  1  0.14372500  0.15244700  0.25510000  1
  C  1232  1  0.15561200  0.17936500  0.27469300  1
  C  1236  1  0.17784000  0.17004600  0.20233200  1
  C  1239  1  0.07924300  0.08365000  0.26941800  1
  C  1242  1  0.34838600  0.85607300  0.72092400  1
  C  1244  1  0.38544500  0.90492700  0.71860400  1
  C  1245  1  0.39653800  0.89880500  0.75227200  1
  C  1247  1  0.35894500  0.85031300  0.75511100  1
  C  1249  1  0.34705500  0.82339500  0.77470400  1
  C  1253  1  0.32487900  0.83268100  0.70232200  1
  C  1256  1  0.42344800  0.91908900  0.76942700  1
  C  1259  1  0.59569200  0.39887400  0.97497300  1
  C  1261  1  0.63069000  0.34863100  0.97263000  1
  C  1262  1  0.63934000  0.35223300  0.00738794  1
  C  1264  1  0.60446900  0.40283900  0.00994594  1
  C  1266  1  0.59105500  0.42818400  0.03059890  1
  C  1270  1  0.57161500  0.42076700  0.95538800  1
  C  1273  1  0.66134300  0.32746200  0.02575590  1
  C  1276  1  0.90702800  0.60388000  0.47491000  1
  C  1278  1  0.87206300  0.65414600  0.47258000  1
  C  1279  1  0.86340500  0.65053900  0.50733800  1
  C  1281  1  0.89825600  0.59992000  0.50988600  1
  C  1283  1  0.91161600  0.57452300  0.53051400  1
  C  1287  1  0.93108700  0.58197600  0.45531700  1
  C  1290  1  0.84139700  0.67530700  0.52570600  1
  C  1293  1  0.34847000  0.14670600  0.99668000  1
  C  1295  1  0.38557700  0.09788700  0.99904700  1
  C  1296  1  0.39664300  0.10397100  0.96536300  1
  C  1298  1  0.35903000  0.15244800  0.96248800  1
  C  1300  1  0.34709900  0.17928300  0.94286200  1
  C  1304  1  0.32493500  0.17007500  0.01527690  1
  C  1307  1  0.42353500  0.08365800  0.94821100  1
  C  1310  1  0.15426500  0.85602900  0.49667400  1
  C  1312  1  0.11716700  0.90485300  0.49903800  1
  C  1313  1  0.10610500  0.89877400  0.46535100  1
  C  1315  1  0.14370500  0.85028700  0.46248100  1
  C  1317  1  0.15563100  0.82344800  0.44285500  1
  C  1321  1  0.17779400  0.83265500  0.51527300  1
  C  1324  1  0.07920900  0.91908200  0.44819800  1
  C  1327  1  0.90698200  0.39887700  0.24275800  1
  C  1329  1  0.87183800  0.34873800  0.24508700  1
  C  1330  1  0.86335700  0.35226100  0.21027700  1
  C  1332  1  0.89836300  0.40277500  0.20773700  1
  C  1334  1  0.91200200  0.42804100  0.18710700  1
  C  1338  1  0.93106100  0.42073700  0.26237700  1
  C  1341  1  0.84137400  0.32749100  0.19188200  1
  C  1344  1  0.59584500  0.60377800  0.74280200  1
  C  1346  1  0.63115200  0.65379900  0.74520000  1
  C  1347  1  0.63948800  0.65039300  0.71034100  1
  C  1349  1  0.60430100  0.60001200  0.70772700  1
  C  1351  1  0.59050600  0.57489600  0.68699000  1
  C  1355  1  0.57175300  0.58192000  0.76240800  1
  C  1358  1  0.66145600  0.67518400  0.69196100  1
  N  44  1  0.90912200  0.06168900  0.93106600  1
  N  46  1  0.09259400  0.93325200  0.05827700  1
  N  48  1  0.90908400  0.94106700  0.07157500  1
  N  50  1  0.09262500  0.06951500  0.94447300  1
  N  95  1  0.59360800  0.94104700  0.43106700  1
  N  97  1  0.41014400  0.06948600  0.55829300  1
  N  99  1  0.59364900  0.06166100  0.57157200  1
  N  101  1  0.41008800  0.93322600  0.44448600  1
  N  146  1  0.19216700  0.66272000  0.17760700  1
  N  148  1  0.31696400  0.84483400  0.30979500  1
  N  150  1  0.31047600  0.66267600  0.32510800  1
  N  152  1  0.18573900  0.84483400  0.19290200  1
  N  197  1  0.31052700  0.34001400  0.67761700  1
  N  199  1  0.18576800  0.15788100  0.80981200  1
  N  201  1  0.19222300  0.34002400  0.82512300  1
  N  203  1  0.31699200  0.15789900  0.69290800  1
  N  248  1  0.80915300  0.34397600  0.82311100  1
  N  250  1  0.68184800  0.16517100  0.68828400  1
  N  252  1  0.69362000  0.34392000  0.67951700  1
  N  254  1  0.82092100  0.16522400  0.81448900  1
  N  299  1  0.69362600  0.65869800  0.32305800  1
  N  301  1  0.82086500  0.83758500  0.18827500  1
  N  303  1  0.80911500  0.65884900  0.17944900  1
  N  305  1  0.68181000  0.83748800  0.31449800  1
  N  350  1  0.41302100  0.55872200  0.42509800  1
  N  352  1  0.58835400  0.43374500  0.56646100  1
  N  354  1  0.41292700  0.44393700  0.57753400  1
  N  356  1  0.58848900  0.56883800  0.43641100  1
  N  401  1  0.08971200  0.44392700  0.92517100  1
  N  403  1  0.91433600  0.56900400  0.06639300  1
  N  405  1  0.08977400  0.55876800  0.07754600  1
  N  407  1  0.91429700  0.43379400  0.93637400  1
  N  410  1  0.88266900  0.85792100  0.15232600  1
  N  413  1  0.87333400  0.87395500  0.08626000  1
  N  427  1  0.62005400  0.14483000  0.65232100  1
  N  430  1  0.62942100  0.12875700  0.58626800  1
  N  444  1  0.38829600  0.63278100  0.40908400  1
  N  447  1  0.38157900  0.63368800  0.34068500  1
  N  461  1  0.11439600  0.36987800  0.90909900  1
  N  464  1  0.12112900  0.36901500  0.84070300  1
  N  478  1  0.61997000  0.85767100  0.35052300  1
  N  481  1  0.62947500  0.87400800  0.41648600  1
  N  495  1  0.88276100  0.14504400  0.85050700  1
  N  498  1  0.87327100  0.12873600  0.91648000  1
  N  512  1  0.11444400  0.63296800  0.09352700  1
  N  515  1  0.12111900  0.63369000  0.16193700  1
  N  529  1  0.38829400  0.36984200  0.59360600  1
  N  532  1  0.38159700  0.36902500  0.66201200  1
  N  546  1  0.14032000  0.11941700  0.84696000  1
  N  549  1  0.11998800  0.13111300  0.91142700  1
  N  563  1  0.36238200  0.88332200  0.34696100  1
  N  566  1  0.38268200  0.87164700  0.41144100  1
  N  580  1  0.60931300  0.37167500  0.60070600  1
  N  583  1  0.62561000  0.37922500  0.66692500  1
  N  597  1  0.89342500  0.63109100  0.10065000  1
  N  600  1  0.87711600  0.62352900  0.16686600  1
  N  614  1  0.36249400  0.11948300  0.65578500  1
  N  617  1  0.38275600  0.13109800  0.59128500  1
  N  631  1  0.14024400  0.88325300  0.15577600  1
  N  634  1  0.11998300  0.87164200  0.09127600  1
  N  648  1  0.89320600  0.37177000  0.90215700  1
  N  651  1  0.87723600  0.37916900  0.83584400  1
  N  665  1  0.60976700  0.63077500  0.40226000  1
  N  668  1  0.62545600  0.62360300  0.33584700  1
  N  724  1  0.90912200  0.06168900  0.28850800  1
  N  726  1  0.09259400  0.93325200  0.41571900  1
  N  728  1  0.90908400  0.94106700  0.42901700  1
  N  730  1  0.09262500  0.06951500  0.30191500  1
  N  775  1  0.59360800  0.94104700  0.78850900  1
  N  777  1  0.41014400  0.06948600  0.91573500  1
  N  779  1  0.59364900  0.06166100  0.92901400  1
  N  781  1  0.41008800  0.93322600  0.80192800  1
  N  826  1  0.19216700  0.66272000  0.53504900  1
  N  828  1  0.31696400  0.84483400  0.66723700  1
  N  830  1  0.31047600  0.66267600  0.68255000  1
  N  832  1  0.18573900  0.84483400  0.55034400  1
  N  877  1  0.31052700  0.34001400  0.03505890  1
  N  879  1  0.18576800  0.15788100  0.16725400  1
  N  881  1  0.19222300  0.34002400  0.18256500  1
  N  883  1  0.31699200  0.15789900  0.05034990  1
  N  928  1  0.80915300  0.34397600  0.18055300  1
  N  930  1  0.68184800  0.16517100  0.04572590  1
  N  932  1  0.69362000  0.34392000  0.03695890  1
  N  934  1  0.82092100  0.16522400  0.17193100  1
  N  979  1  0.69362600  0.65869800  0.68050000  1
  N  981  1  0.82086500  0.83758500  0.54571700  1
  N  983  1  0.80911500  0.65884900  0.53689100  1
  N  985  1  0.68181000  0.83748800  0.67194000  1
  N  1030  1  0.41302100  0.55872200  0.78254000  1
  N  1032  1  0.58835400  0.43374500  0.92390300  1
  N  1034  1  0.41292700  0.44393700  0.93497600  1
  N  1036  1  0.58848900  0.56883800  0.79385300  1
  N  1081  1  0.08971200  0.44392700  0.28261300  1
  N  1083  1  0.91433600  0.56900400  0.42383500  1
  N  1085  1  0.08977400  0.55876800  0.43498800  1
  N  1087  1  0.91429700  0.43379400  0.29381600  1
  N  1090  1  0.88266900  0.85792100  0.50976800  1
  N  1093  1  0.87333400  0.87395500  0.44370200  1
  N  1107  1  0.62005400  0.14483000  0.00976294  1
  N  1110  1  0.62942100  0.12875700  0.94371000  1
  N  1124  1  0.38829600  0.63278100  0.76652600  1
  N  1127  1  0.38157900  0.63368800  0.69812700  1
  N  1141  1  0.11439600  0.36987800  0.26654100  1
  N  1144  1  0.12112900  0.36901500  0.19814500  1
  N  1158  1  0.61997000  0.85767100  0.70796500  1
  N  1161  1  0.62947500  0.87400800  0.77392800  1
  N  1175  1  0.88276100  0.14504400  0.20794900  1
  N  1178  1  0.87327100  0.12873600  0.27392200  1
  N  1192  1  0.11444400  0.63296800  0.45096900  1
  N  1195  1  0.12111900  0.63369000  0.51937900  1
  N  1209  1  0.38829400  0.36984200  0.95104800  1
  N  1212  1  0.38159700  0.36902500  0.01945390  1
  N  1226  1  0.14032000  0.11941700  0.20440200  1
  N  1229  1  0.11998800  0.13111300  0.26886900  1
  N  1243  1  0.36238200  0.88332200  0.70440300  1
  N  1246  1  0.38268200  0.87164700  0.76888300  1
  N  1260  1  0.60931300  0.37167500  0.95814800  1
  N  1263  1  0.62561000  0.37922500  0.02436690  1
  N  1277  1  0.89342500  0.63109100  0.45809200  1
  N  1280  1  0.87711600  0.62352900  0.52430800  1
  N  1294  1  0.36249400  0.11948300  0.01322690  1
  N  1297  1  0.38275600  0.13109800  0.94872700  1
  N  1311  1  0.14024400  0.88325300  0.51321800  1
  N  1314  1  0.11998300  0.87164200  0.44871800  1
  N  1328  1  0.89320600  0.37177000  0.25959900  1
  N  1331  1  0.87723600  0.37916900  0.19328600  1
  N  1345  1  0.60976700  0.63077500  0.75970200  1
  N  1348  1  0.62545600  0.62360300  0.69328900  1
  O  417  1  0.80747300  0.86048200  0.06443800  1
  O  418  1  0.82583800  0.81113200  0.06961700  1
  O  434  1  0.69530800  0.14219600  0.56448700  1
  O  435  1  0.67693600  0.19154900  0.56960400  1
  O  451  1  0.40515500  0.57195200  0.31339200  1
  O  452  1  0.44985800  0.59854600  0.32152100  1
  O  468  1  0.09760700  0.43078900  0.81345300  1
  O  469  1  0.05288000  0.40422000  0.82153600  1
  O  485  1  0.69527500  0.86068600  0.43854800  1
  O  486  1  0.67764300  0.81136700  0.43304300  1
  O  502  1  0.80748900  0.14208800  0.93856500  1
  O  503  1  0.82512300  0.19140100  0.93302200  1
  O  519  1  0.09807800  0.57128900  0.18811100  1
  O  520  1  0.05353000  0.59880100  0.18199200  1
  O  536  1  0.40482600  0.43134300  0.68851700  1
  O  537  1  0.44946200  0.40381200  0.68157500  1
  O  553  1  0.16889500  0.17194500  0.94448100  1
  O  554  1  0.14061200  0.20712200  0.91685500  1
  O  570  1  0.33374800  0.83082200  0.44447600  1
  O  571  1  0.36207300  0.79564700  0.41689200  1
  O  587  1  0.61076300  0.44353900  0.69185900  1
  O  588  1  0.56171900  0.42575400  0.68461500  1
  O  604  1  0.89187300  0.55917600  0.19174100  1
  O  605  1  0.94095000  0.57689800  0.18455200  1
  O  621  1  0.33447600  0.17213100  0.55779500  1
  O  622  1  0.36141700  0.20740000  0.58616800  1
  O  638  1  0.16825600  0.83059500  0.05779000  1
  O  639  1  0.14130600  0.79533600  0.08616600  1
  O  655  1  0.89208200  0.44336800  0.81115500  1
  O  656  1  0.94119500  0.42537600  0.81799200  1
  O  672  1  0.61016000  0.55941900  0.31090800  1
  O  673  1  0.56113200  0.57788100  0.31833200  1
  O  1097  1  0.80747300  0.86048200  0.42188000  1
  O  1098  1  0.82583800  0.81113200  0.42705900  1
  O  1114  1  0.69530800  0.14219600  0.92192900  1
  O  1115  1  0.67693600  0.19154900  0.92704600  1
  O  1131  1  0.40515500  0.57195200  0.67083400  1
  O  1132  1  0.44985800  0.59854600  0.67896300  1
  O  1148  1  0.09760700  0.43078900  0.17089500  1
  O  1149  1  0.05288000  0.40422000  0.17897800  1
  O  1165  1  0.69527500  0.86068600  0.79599000  1
  O  1166  1  0.67764300  0.81136700  0.79048500  1
  O  1182  1  0.80748900  0.14208800  0.29600700  1
  O  1183  1  0.82512300  0.19140100  0.29046400  1
  O  1199  1  0.09807800  0.57128900  0.54555300  1
  O  1200  1  0.05353000  0.59880100  0.53943400  1
  O  1216  1  0.40482600  0.43134300  0.04595890  1
  O  1217  1  0.44946200  0.40381200  0.03901690  1
  O  1233  1  0.16889500  0.17194500  0.30192300  1
  O  1234  1  0.14061200  0.20712200  0.27429700  1
  O  1250  1  0.33374800  0.83082200  0.80191800  1
  O  1251  1  0.36207300  0.79564700  0.77433400  1
  O  1267  1  0.61076300  0.44353900  0.04930090  1
  O  1268  1  0.56171900  0.42575400  0.04205690  1
  O  1284  1  0.89187300  0.55917600  0.54918300  1
  O  1285  1  0.94095000  0.57689800  0.54199400  1
  O  1301  1  0.33447600  0.17213100  0.91523700  1
  O  1302  1  0.36141700  0.20740000  0.94361000  1
  O  1318  1  0.16825600  0.83059500  0.41523200  1
  O  1319  1  0.14130600  0.79533600  0.44360800  1
  O  1335  1  0.89208200  0.44336800  0.16859700  1
  O  1336  1  0.94119500  0.42537600  0.17543400  1
  O  1352  1  0.61016000  0.55941900  0.66835000  1
  O  1353  1  0.56113200  0.57788100  0.67577400  1
