# generated using pymatgen
data_H6C12N5O3
_symmetry_space_group_name_H-M   'P 1'
_cell_length_a   40.28130000
_cell_length_b   46.39600000
_cell_length_c   61.30060000
_cell_angle_alpha   89.99310000
_cell_angle_beta   89.45470000
_cell_angle_gamma   89.27950000
_symmetry_Int_Tables_number   1
_chemical_formula_structural   H6C12N5O3
_chemical_formula_sum   'H576 C1152 N480 O288'
_cell_volume   114549.90542238
_cell_formula_units_Z   96
loop_
 _symmetry_equiv_pos_site_id
 _symmetry_equiv_pos_as_xyz
  1  'x, y, z'
loop_
 _atom_site_type_symbol
 _atom_site_label
 _atom_site_symmetry_multiplicity
 _atom_site_fract_x
 _atom_site_fract_y
 _atom_site_fract_z
 _atom_site_occupancy
  H  7  1  0.12835100  0.16833000  0.84323900  1
  H  8  1  0.14305300  0.18957700  0.90897500  1
  H  15  1  0.02753600  0.08957000  0.80594400  1
  H  16  1  0.08023800  0.09459200  0.86416400  1
  H  19  1  0.06287700  0.11586800  0.90037600  1
  H  20  1  0.08433400  0.17913300  0.81462600  1
  H  25  1  0.06597200  0.04687000  0.84494500  1
  H  26  1  0.06957300  0.15796700  0.92983100  1
  H  27  1  0.16586600  0.20853800  0.85442000  1
  H  28  1  0.03327100  0.16496200  0.79088600  1
  H  35  1  0.85708000  0.82083300  0.84520400  1
  H  36  1  0.83981700  0.79695100  0.91041100  1
  H  43  1  0.96232600  0.89601600  0.80920700  1
  H  44  1  0.90980700  0.88961400  0.86813000  1
  H  47  1  0.92658200  0.86512100  0.90313600  1
  H  48  1  0.90095800  0.80845100  0.81604600  1
  H  53  1  0.92962900  0.93594600  0.85509800  1
  H  54  1  0.91627200  0.82145600  0.93122000  1
  H  55  1  0.80726000  0.79485600  0.85509800  1
  H  56  1  0.95300400  0.82170400  0.79221400  1
  H  63  1  0.12863700  0.81930900  0.63039000  1
  H  64  1  0.14504100  0.79758700  0.56459100  1
  H  71  1  0.02602400  0.89550500  0.66916600  1
  H  72  1  0.07785000  0.88962300  0.60983400  1
  H  75  1  0.05752300  0.86657000  0.57446600  1
  H  76  1  0.08295100  0.80495700  0.65895300  1
  H  81  1  0.06514900  0.93747800  0.63009900  1
  H  82  1  0.06737500  0.82411900  0.54494400  1
  H  83  1  0.18073300  0.79657800  0.61863200  1
  H  84  1  0.02811000  0.81976600  0.68248000  1
  H  91  1  0.86000400  0.16820800  0.62982300  1
  H  92  1  0.84301600  0.18943300  0.56420900  1
  H  99  1  0.96376000  0.09179700  0.66666667  1
  H  100  1  0.91264200  0.09861600  0.60775600  1
  H  103  1  0.93171200  0.12177700  0.57258000  1
  H  104  1  0.90414700  0.18121500  0.65874000  1
  H  109  1  0.93098200  0.05214000  0.62125200  1
  H  110  1  0.92047000  0.16340300  0.54328000  1
  H  111  1  0.80889200  0.19266300  0.61936000  1
  H  112  1  0.95854800  0.16694700  0.68158100  1
  H  119  1  0.85631300  0.81912800  0.13138600  1
  H  120  1  0.83973800  0.79716400  0.06597800  1
  H  127  1  0.95906800  0.89512900  0.16793200  1
  H  128  1  0.90715800  0.88975000  0.10939800  1
  H  131  1  0.92472800  0.86671700  0.07362700  1
  H  132  1  0.90052800  0.80635700  0.15973100  1
  H  137  1  0.92150600  0.93751500  0.12823800  1
  H  138  1  0.91505500  0.82486100  0.04428700  1
  H  139  1  0.80749100  0.79184300  0.12160300  1
  H  140  1  0.95155800  0.82006200  0.18373600  1
  H  147  1  0.12912400  0.16391600  0.12936200  1
  H  148  1  0.14740300  0.18729500  0.06419900  1
  H  155  1  0.02418600  0.08860800  0.16516900  1
  H  156  1  0.07691200  0.09497000  0.10631500  1
  H  159  1  0.06057800  0.11910400  0.07118700  1
  H  160  1  0.08505000  0.17639100  0.15826800  1
  H  165  1  0.05746300  0.04859900  0.11952100  1
  H  166  1  0.07164100  0.16156700  0.04264100  1
  H  167  1  0.17987500  0.18882900  0.11932500  1
  H  168  1  0.03281500  0.16307600  0.18190300  1
  H  175  1  0.85879800  0.16662700  0.34382900  1
  H  176  1  0.84145600  0.18844700  0.40948100  1
  H  183  1  0.96089800  0.08996300  0.30538800  1
  H  184  1  0.90934100  0.09604200  0.36479800  1
  H  187  1  0.92852400  0.11891200  0.40035700  1
  H  188  1  0.90417000  0.18053600  0.31537300  1
  H  193  1  0.92222400  0.04814500  0.34488800  1
  H  194  1  0.91805300  0.16087200  0.43007900  1
  H  195  1  0.80818900  0.19182100  0.35447600  1
  H  196  1  0.95844400  0.16562900  0.29179300  1
  H  203  1  0.12369800  0.81356900  0.34451300  1
  H  204  1  0.14023200  0.79319800  0.41025400  1
  H  211  1  0.02320600  0.89374000  0.30716100  1
  H  212  1  0.07496900  0.88707400  0.36580200  1
  H  215  1  0.05735200  0.86636700  0.40182500  1
  H  216  1  0.07964400  0.80301700  0.31572100  1
  H  221  1  0.05779500  0.93372700  0.35156200  1
  H  222  1  0.06647400  0.82545900  0.43181600  1
  H  223  1  0.16245500  0.77327200  0.35596900  1
  H  224  1  0.02588300  0.81832200  0.29312000  1
  H  231  1  0.62966200  0.66679000  0.84296000  1
  H  232  1  0.64492400  0.68871400  0.90854400  1
  H  239  1  0.52742800  0.58959700  0.80609400  1
  H  240  1  0.58005500  0.59457900  0.86435400  1
  H  243  1  0.56277200  0.61663400  0.90037400  1
  H  244  1  0.58551400  0.67859900  0.81448100  1
  H  249  1  0.56534100  0.54691100  0.84543200  1
  H  250  1  0.57060800  0.65860800  0.92963100  1
  H  251  1  0.67336900  0.70038300  0.85269100  1
  H  252  1  0.53446500  0.66479500  0.79061100  1
  H  259  1  0.35608200  0.32164600  0.84515900  1
  H  260  1  0.33787600  0.29800400  0.91031100  1
  H  267  1  0.46130400  0.39628500  0.80910400  1
  H  268  1  0.40886600  0.39027000  0.86809400  1
  H  271  1  0.42501500  0.36596100  0.90329800  1
  H  272  1  0.39988700  0.30885000  0.81619400  1
  H  277  1  0.42853300  0.43653300  0.85477600  1
  H  278  1  0.41434200  0.32245500  0.93137100  1
  H  279  1  0.30720500  0.29505900  0.85440900  1
  H  280  1  0.45207600  0.32184700  0.79243300  1
  H  287  1  0.62659000  0.31637700  0.63041200  1
  H  288  1  0.64205800  0.29455500  0.56455400  1
  H  295  1  0.52557100  0.39511000  0.66930800  1
  H  296  1  0.57804500  0.38946800  0.61023900  1
  H  299  1  0.55950100  0.36813600  0.57423100  1
  H  300  1  0.58137200  0.30413900  0.65906100  1
  H  305  1  0.56481800  0.43726400  0.63036700  1
  H  306  1  0.56721200  0.32576800  0.54462100  1
  H  307  1  0.67126500  0.28373500  0.62014300  1
  H  308  1  0.52734600  0.31933200  0.68248400  1
  H  315  1  0.36084000  0.67032400  0.62996500  1
  H  316  1  0.34463700  0.69103400  0.56419500  1
  H  323  1  0.46260200  0.59122000  0.66720000  1
  H  324  1  0.41064700  0.59767600  0.60861400  1
  H  327  1  0.42870700  0.61897100  0.57277700  1
  H  328  1  0.40500500  0.68148500  0.65882000  1
  H  333  1  0.42839100  0.55111000  0.62268100  1
  H  334  1  0.41962400  0.66049700  0.54317600  1
  H  335  1  0.31995800  0.70828800  0.61925000  1
  H  336  1  0.45919400  0.66658600  0.68136900  1
  H  343  1  0.35663000  0.31790800  0.13157400  1
  H  344  1  0.34052000  0.29641400  0.06604400  1
  H  351  1  0.45827500  0.39556900  0.16834200  1
  H  352  1  0.40558500  0.39060500  0.11010500  1
  H  355  1  0.42220800  0.36893400  0.07388200  1
  H  356  1  0.40085000  0.30632900  0.15987200  1
  H  361  1  0.42007900  0.43829100  0.12919800  1
  H  362  1  0.41382400  0.32754400  0.04423000  1
  H  363  1  0.31534400  0.28127300  0.12166000  1
  H  364  1  0.45202400  0.32025500  0.18354800  1
  H  371  1  0.62776500  0.66592000  0.12934200  1
  H  372  1  0.64536400  0.68921900  0.06409000  1
  H  379  1  0.52375600  0.58902800  0.16530300  1
  H  380  1  0.57700600  0.59508600  0.10665900  1
  H  383  1  0.56177300  0.61800800  0.07109800  1
  H  384  1  0.58397500  0.67710100  0.15830100  1
  H  389  1  0.55724900  0.54880900  0.11985900  1
  H  390  1  0.57163900  0.66005500  0.04232300  1
  H  391  1  0.67323400  0.69758700  0.12024200  1
  H  392  1  0.53229400  0.66352900  0.18195200  1
  H  399  1  0.35792400  0.66608600  0.34375600  1
  H  400  1  0.33980800  0.68756600  0.40939500  1
  H  407  1  0.45987000  0.58967500  0.30524400  1
  H  408  1  0.40828700  0.59535500  0.36466900  1
  H  411  1  0.42690300  0.61793000  0.40044600  1
  H  412  1  0.40321400  0.68017100  0.31549400  1
  H  417  1  0.42111700  0.54758900  0.34443800  1
  H  418  1  0.41621800  0.65968300  0.43019000  1
  H  419  1  0.30909000  0.69331200  0.35359800  1
  H  420  1  0.45752500  0.66542500  0.29196500  1
  H  427  1  0.62484800  0.31495200  0.34426000  1
  H  428  1  0.64168500  0.29360800  0.40983300  1
  H  435  1  0.52278800  0.39355100  0.30739900  1
  H  436  1  0.57463800  0.38700100  0.36602100  1
  H  439  1  0.55728800  0.36553600  0.40187100  1
  H  440  1  0.58077100  0.30347600  0.31555900  1
  H  445  1  0.55658700  0.43350400  0.35219500  1
  H  446  1  0.56736600  0.32472800  0.43163200  1
  H  447  1  0.67076900  0.28343600  0.35385100  1
  H  448  1  0.52688300  0.31825200  0.29291700  1
  H  455  1  0.06086200  0.15719200  0.96944100  1
  H  467  1  0.92526600  0.82572500  0.97034600  1
  H  479  1  0.05774300  0.82828700  0.50582100  1
  H  491  1  0.92917100  0.15947300  0.50374400  1
  H  503  1  0.56193400  0.65575000  0.96904400  1
  H  515  1  0.42326300  0.32876400  0.97026900  1
  H  527  1  0.55816500  0.32927900  0.50539600  1
  H  539  1  0.42785000  0.65748600  0.50358200  1
  H  551  1  0.05276200  0.99671700  0.83279000  1
  H  563  1  0.05258400  0.98757200  0.64270800  1
  H  575  1  0.93406600  0.98769700  0.14060000  1
  H  587  1  0.93444000  0.99782500  0.33263800  1
  H  599  1  0.55224900  0.49676000  0.83343400  1
  H  611  1  0.55190500  0.48753700  0.64222800  1
  H  623  1  0.43330500  0.48847400  0.14133400  1
  H  635  1  0.43373800  0.49741800  0.33203600  1
  H  647  1  0.24153400  0.20371900  0.90763800  1
  H  659  1  0.75840400  0.76505000  0.84792800  1
  H  671  1  0.23289800  0.77074100  0.62383000  1
  H  683  1  0.75728800  0.22013300  0.62536000  1
  H  695  1  0.75745200  0.76211900  0.12754100  1
  H  707  1  0.22920000  0.21797700  0.12641900  1
  H  719  1  0.75732100  0.21952300  0.34845100  1
  H  731  1  0.24038200  0.78233500  0.40731000  1
  H  743  1  0.98670800  0.17741400  0.71940900  1
  H  755  1  0.99885700  0.80943600  0.72055600  1
  H  767  1  0.99748100  0.80787000  0.25536300  1
  H  779  1  0.98712600  0.17580000  0.25344900  1
  H  791  1  0.48790700  0.67708900  0.71906800  1
  H  803  1  0.49827900  0.30904700  0.72085000  1
  H  815  1  0.49868500  0.30776300  0.25502000  1
  H  827  1  0.48651800  0.67584400  0.25373800  1
  H  839  1  0.40143100  0.16833000  0.84323900  1
  H  840  1  0.41613300  0.18957700  0.90897500  1
  H  847  1  0.30061600  0.08957000  0.80594400  1
  H  848  1  0.35331800  0.09459200  0.86416400  1
  H  851  1  0.33595700  0.11586800  0.90037600  1
  H  852  1  0.35741400  0.17913300  0.81462600  1
  H  857  1  0.33905200  0.04687000  0.84494500  1
  H  858  1  0.34265300  0.15796700  0.92983100  1
  H  859  1  0.43894600  0.20853800  0.85442000  1
  H  860  1  0.30635100  0.16496200  0.79088600  1
  H  867  1  0.13016000  0.82083300  0.84520400  1
  H  868  1  0.11289700  0.79695100  0.91041100  1
  H  875  1  0.23540600  0.89601600  0.80920700  1
  H  876  1  0.18288700  0.88961400  0.86813000  1
  H  879  1  0.19966200  0.86512100  0.90313600  1
  H  880  1  0.17403800  0.80845100  0.81604600  1
  H  885  1  0.20270900  0.93594600  0.85509800  1
  H  886  1  0.18935200  0.82145600  0.93122000  1
  H  887  1  0.08033960  0.79485600  0.85509800  1
  H  888  1  0.22608400  0.82170400  0.79221400  1
  H  895  1  0.40171700  0.81930900  0.63039000  1
  H  896  1  0.41812100  0.79758700  0.56459100  1
  H  903  1  0.29910400  0.89550500  0.66916600  1
  H  904  1  0.35093000  0.88962300  0.60983400  1
  H  907  1  0.33060300  0.86657000  0.57446600  1
  H  908  1  0.35603100  0.80495700  0.65895300  1
  H  913  1  0.33822900  0.93747800  0.63009900  1
  H  914  1  0.34045500  0.82411900  0.54494400  1
  H  915  1  0.45381300  0.79657800  0.61863200  1
  H  916  1  0.30119000  0.81976600  0.68248000  1
  H  923  1  0.13308400  0.16820800  0.62982300  1
  H  924  1  0.11609600  0.18943300  0.56420900  1
  H  931  1  0.23684000  0.09179700  0.66666667  1
  H  932  1  0.18572200  0.09861600  0.60775600  1
  H  935  1  0.20479200  0.12177700  0.57258000  1
  H  936  1  0.17722700  0.18121500  0.65874000  1
  H  941  1  0.20406200  0.05214000  0.62125200  1
  H  942  1  0.19355000  0.16340300  0.54328000  1
  H  943  1  0.08197160  0.19266300  0.61936000  1
  H  944  1  0.23162800  0.16694700  0.68158100  1
  H  951  1  0.12939300  0.81912800  0.13138600  1
  H  952  1  0.11281800  0.79716400  0.06597800  1
  H  959  1  0.23214800  0.89512900  0.16793200  1
  H  960  1  0.18023800  0.88975000  0.10939800  1
  H  963  1  0.19780800  0.86671700  0.07362700  1
  H  964  1  0.17360800  0.80635700  0.15973100  1
  H  969  1  0.19458600  0.93751500  0.12823800  1
  H  970  1  0.18813500  0.82486100  0.04428700  1
  H  971  1  0.08057060  0.79184300  0.12160300  1
  H  972  1  0.22463800  0.82006200  0.18373600  1
  H  979  1  0.40220400  0.16391600  0.12936200  1
  H  980  1  0.42048300  0.18729500  0.06419900  1
  H  987  1  0.29726600  0.08860800  0.16516900  1
  H  988  1  0.34999200  0.09497000  0.10631500  1
  H  991  1  0.33365800  0.11910400  0.07118700  1
  H  992  1  0.35813000  0.17639100  0.15826800  1
  H  997  1  0.33054300  0.04859900  0.11952100  1
  H  998  1  0.34472100  0.16156700  0.04264100  1
  H  999  1  0.45295500  0.18882900  0.11932500  1
  H  1000  1  0.30589500  0.16307600  0.18190300  1
  H  1007  1  0.13187800  0.16662700  0.34382900  1
  H  1008  1  0.11453600  0.18844700  0.40948100  1
  H  1015  1  0.23397800  0.08996300  0.30538800  1
  H  1016  1  0.18242100  0.09604200  0.36479800  1
  H  1019  1  0.20160400  0.11891200  0.40035700  1
  H  1020  1  0.17725000  0.18053600  0.31537300  1
  H  1025  1  0.19530400  0.04814500  0.34488800  1
  H  1026  1  0.19113300  0.16087200  0.43007900  1
  H  1027  1  0.08126860  0.19182100  0.35447600  1
  H  1028  1  0.23152400  0.16562900  0.29179300  1
  H  1035  1  0.39677800  0.81356900  0.34451300  1
  H  1036  1  0.41331200  0.79319800  0.41025400  1
  H  1043  1  0.29628600  0.89374000  0.30716100  1
  H  1044  1  0.34804900  0.88707400  0.36580200  1
  H  1047  1  0.33043200  0.86636700  0.40182500  1
  H  1048  1  0.35272400  0.80301700  0.31572100  1
  H  1053  1  0.33087500  0.93372700  0.35156200  1
  H  1054  1  0.33955400  0.82545900  0.43181600  1
  H  1055  1  0.43553500  0.77327200  0.35596900  1
  H  1056  1  0.29896300  0.81832200  0.29312000  1
  H  1063  1  0.90274200  0.66679000  0.84296000  1
  H  1064  1  0.91800400  0.68871400  0.90854400  1
  H  1071  1  0.80050800  0.58959700  0.80609400  1
  H  1072  1  0.85313500  0.59457900  0.86435400  1
  H  1075  1  0.83585200  0.61663400  0.90037400  1
  H  1076  1  0.85859400  0.67859900  0.81448100  1
  H  1081  1  0.83842100  0.54691100  0.84543200  1
  H  1082  1  0.84368800  0.65860800  0.92963100  1
  H  1083  1  0.94644900  0.70038300  0.85269100  1
  H  1084  1  0.80754500  0.66479500  0.79061100  1
  H  1091  1  0.62916200  0.32164600  0.84515900  1
  H  1092  1  0.61095600  0.29800400  0.91031100  1
  H  1099  1  0.73438400  0.39628500  0.80910400  1
  H  1100  1  0.68194600  0.39027000  0.86809400  1
  H  1103  1  0.69809500  0.36596100  0.90329800  1
  H  1104  1  0.67296700  0.30885000  0.81619400  1
  H  1109  1  0.70161300  0.43653300  0.85477600  1
  H  1110  1  0.68742200  0.32245500  0.93137100  1
  H  1111  1  0.58028500  0.29505900  0.85440900  1
  H  1112  1  0.72515600  0.32184700  0.79243300  1
  H  1119  1  0.89967000  0.31637700  0.63041200  1
  H  1120  1  0.91513800  0.29455500  0.56455400  1
  H  1127  1  0.79865100  0.39511000  0.66930800  1
  H  1128  1  0.85112500  0.38946800  0.61023900  1
  H  1131  1  0.83258100  0.36813600  0.57423100  1
  H  1132  1  0.85445200  0.30413900  0.65906100  1
  H  1137  1  0.83789800  0.43726400  0.63036700  1
  H  1138  1  0.84029200  0.32576800  0.54462100  1
  H  1139  1  0.94434500  0.28373500  0.62014300  1
  H  1140  1  0.80042600  0.31933200  0.68248400  1
  H  1147  1  0.63392000  0.67032400  0.62996500  1
  H  1148  1  0.61771700  0.69103400  0.56419500  1
  H  1155  1  0.73568200  0.59122000  0.66720000  1
  H  1156  1  0.68372700  0.59767600  0.60861400  1
  H  1159  1  0.70178700  0.61897100  0.57277700  1
  H  1160  1  0.67808500  0.68148500  0.65882000  1
  H  1165  1  0.70147100  0.55111000  0.62268100  1
  H  1166  1  0.69270400  0.66049700  0.54317600  1
  H  1167  1  0.59303800  0.70828800  0.61925000  1
  H  1168  1  0.73227400  0.66658600  0.68136900  1
  H  1175  1  0.62971000  0.31790800  0.13157400  1
  H  1176  1  0.61360000  0.29641400  0.06604400  1
  H  1183  1  0.73135500  0.39556900  0.16834200  1
  H  1184  1  0.67866500  0.39060500  0.11010500  1
  H  1187  1  0.69528800  0.36893400  0.07388200  1
  H  1188  1  0.67393000  0.30632900  0.15987200  1
  H  1193  1  0.69315900  0.43829100  0.12919800  1
  H  1194  1  0.68690400  0.32754400  0.04423000  1
  H  1195  1  0.58842400  0.28127300  0.12166000  1
  H  1196  1  0.72510400  0.32025500  0.18354800  1
  H  1203  1  0.90084500  0.66592000  0.12934200  1
  H  1204  1  0.91844400  0.68921900  0.06409000  1
  H  1211  1  0.79683600  0.58902800  0.16530300  1
  H  1212  1  0.85008600  0.59508600  0.10665900  1
  H  1215  1  0.83485300  0.61800800  0.07109800  1
  H  1216  1  0.85705500  0.67710100  0.15830100  1
  H  1221  1  0.83032900  0.54880900  0.11985900  1
  H  1222  1  0.84471900  0.66005500  0.04232300  1
  H  1223  1  0.94631400  0.69758700  0.12024200  1
  H  1224  1  0.80537400  0.66352900  0.18195200  1
  H  1231  1  0.63100400  0.66608600  0.34375600  1
  H  1232  1  0.61288800  0.68756600  0.40939500  1
  H  1239  1  0.73295000  0.58967500  0.30524400  1
  H  1240  1  0.68136700  0.59535500  0.36466900  1
  H  1243  1  0.69998300  0.61793000  0.40044600  1
  H  1244  1  0.67629400  0.68017100  0.31549400  1
  H  1249  1  0.69419700  0.54758900  0.34443800  1
  H  1250  1  0.68929800  0.65968300  0.43019000  1
  H  1251  1  0.58217000  0.69331200  0.35359800  1
  H  1252  1  0.73060500  0.66542500  0.29196500  1
  H  1259  1  0.89792800  0.31495200  0.34426000  1
  H  1260  1  0.91476500  0.29360800  0.40983300  1
  H  1267  1  0.79586800  0.39355100  0.30739900  1
  H  1268  1  0.84771800  0.38700100  0.36602100  1
  H  1271  1  0.83036800  0.36553600  0.40187100  1
  H  1272  1  0.85385100  0.30347600  0.31555900  1
  H  1277  1  0.82966700  0.43350400  0.35219500  1
  H  1278  1  0.84044600  0.32472800  0.43163200  1
  H  1279  1  0.94384900  0.28343600  0.35385100  1
  H  1280  1  0.79996300  0.31825200  0.29291700  1
  H  1287  1  0.33394200  0.15719200  0.96944100  1
  H  1299  1  0.19834600  0.82572500  0.97034600  1
  H  1311  1  0.33082300  0.82828700  0.50582100  1
  H  1323  1  0.20225100  0.15947300  0.50374400  1
  H  1335  1  0.83501400  0.65575000  0.96904400  1
  H  1347  1  0.69634300  0.32876400  0.97026900  1
  H  1359  1  0.83124500  0.32927900  0.50539600  1
  H  1371  1  0.70093000  0.65748600  0.50358200  1
  H  1383  1  0.32584200  0.99671700  0.83279000  1
  H  1395  1  0.32566400  0.98757200  0.64270800  1
  H  1407  1  0.20714600  0.98769700  0.14060000  1
  H  1419  1  0.20752000  0.99782500  0.33263800  1
  H  1431  1  0.82532900  0.49676000  0.83343400  1
  H  1443  1  0.82498500  0.48753700  0.64222800  1
  H  1455  1  0.70638500  0.48847400  0.14133400  1
  H  1467  1  0.70681800  0.49741800  0.33203600  1
  H  1479  1  0.51461400  0.20371900  0.90763800  1
  H  1491  1  0.03148360  0.76505000  0.84792800  1
  H  1503  1  0.50597800  0.77074100  0.62383000  1
  H  1515  1  0.03036760  0.22013300  0.62536000  1
  H  1527  1  0.03053160  0.76211900  0.12754100  1
  H  1539  1  0.50228000  0.21797700  0.12641900  1
  H  1551  1  0.03040060  0.21952300  0.34845100  1
  H  1563  1  0.51346200  0.78233500  0.40731000  1
  H  1575  1  0.25978800  0.17741400  0.71940900  1
  H  1587  1  0.27193700  0.80943600  0.72055600  1
  H  1599  1  0.27056100  0.80787000  0.25536300  1
  H  1611  1  0.26020600  0.17580000  0.25344900  1
  H  1623  1  0.76098700  0.67708900  0.71906800  1
  H  1635  1  0.77135900  0.30904700  0.72085000  1
  H  1647  1  0.77176500  0.30776300  0.25502000  1
  H  1659  1  0.75959800  0.67584400  0.25373800  1
  H  1671  1  0.67451000  0.16833000  0.84323900  1
  H  1672  1  0.68921200  0.18957700  0.90897500  1
  H  1679  1  0.57369500  0.08957000  0.80594400  1
  H  1680  1  0.62639700  0.09459200  0.86416400  1
  H  1683  1  0.60903600  0.11586800  0.90037600  1
  H  1684  1  0.63049300  0.17913300  0.81462600  1
  H  1689  1  0.61213100  0.04687000  0.84494500  1
  H  1690  1  0.61573200  0.15796700  0.92983100  1
  H  1691  1  0.71202500  0.20853800  0.85442000  1
  H  1692  1  0.57943000  0.16496200  0.79088600  1
  H  1699  1  0.40323900  0.82083300  0.84520400  1
  H  1700  1  0.38597600  0.79695100  0.91041100  1
  H  1707  1  0.50848500  0.89601600  0.80920700  1
  H  1708  1  0.45596600  0.88961400  0.86813000  1
  H  1711  1  0.47274100  0.86512100  0.90313600  1
  H  1712  1  0.44711700  0.80845100  0.81604600  1
  H  1717  1  0.47578800  0.93594600  0.85509800  1
  H  1718  1  0.46243100  0.82145600  0.93122000  1
  H  1719  1  0.35341900  0.79485600  0.85509800  1
  H  1720  1  0.49916300  0.82170400  0.79221400  1
  H  1727  1  0.67479600  0.81930900  0.63039000  1
  H  1728  1  0.69120000  0.79758700  0.56459100  1
  H  1735  1  0.57218300  0.89550500  0.66916600  1
  H  1736  1  0.62400900  0.88962300  0.60983400  1
  H  1739  1  0.60368200  0.86657000  0.57446600  1
  H  1740  1  0.62911000  0.80495700  0.65895300  1
  H  1745  1  0.61130800  0.93747800  0.63009900  1
  H  1746  1  0.61353400  0.82411900  0.54494400  1
  H  1747  1  0.72689200  0.79657800  0.61863200  1
  H  1748  1  0.57426900  0.81976600  0.68248000  1
  H  1755  1  0.40616300  0.16820800  0.62982300  1
  H  1756  1  0.38917500  0.18943300  0.56420900  1
  H  1763  1  0.50991900  0.09179700  0.66666667  1
  H  1764  1  0.45880100  0.09861600  0.60775600  1
  H  1767  1  0.47787100  0.12177700  0.57258000  1
  H  1768  1  0.45030600  0.18121500  0.65874000  1
  H  1773  1  0.47714100  0.05214000  0.62125200  1
  H  1774  1  0.46662900  0.16340300  0.54328000  1
  H  1775  1  0.35505100  0.19266300  0.61936000  1
  H  1776  1  0.50470700  0.16694700  0.68158100  1
  H  1783  1  0.40247200  0.81912800  0.13138600  1
  H  1784  1  0.38589700  0.79716400  0.06597800  1
  H  1791  1  0.50522700  0.89512900  0.16793200  1
  H  1792  1  0.45331700  0.88975000  0.10939800  1
  H  1795  1  0.47088700  0.86671700  0.07362700  1
  H  1796  1  0.44668700  0.80635700  0.15973100  1
  H  1801  1  0.46766500  0.93751500  0.12823800  1
  H  1802  1  0.46121400  0.82486100  0.04428700  1
  H  1803  1  0.35365000  0.79184300  0.12160300  1
  H  1804  1  0.49771700  0.82006200  0.18373600  1
  H  1811  1  0.67528300  0.16391600  0.12936200  1
  H  1812  1  0.69356200  0.18729500  0.06419900  1
  H  1819  1  0.57034500  0.08860800  0.16516900  1
  H  1820  1  0.62307100  0.09497000  0.10631500  1
  H  1823  1  0.60673700  0.11910400  0.07118700  1
  H  1824  1  0.63120900  0.17639100  0.15826800  1
  H  1829  1  0.60362200  0.04859900  0.11952100  1
  H  1830  1  0.61780000  0.16156700  0.04264100  1
  H  1831  1  0.72603400  0.18882900  0.11932500  1
  H  1832  1  0.57897400  0.16307600  0.18190300  1
  H  1839  1  0.40495700  0.16662700  0.34382900  1
  H  1840  1  0.38761500  0.18844700  0.40948100  1
  H  1847  1  0.50705700  0.08996300  0.30538800  1
  H  1848  1  0.45550000  0.09604200  0.36479800  1
  H  1851  1  0.47468300  0.11891200  0.40035700  1
  H  1852  1  0.45032900  0.18053600  0.31537300  1
  H  1857  1  0.46838300  0.04814500  0.34488800  1
  H  1858  1  0.46421200  0.16087200  0.43007900  1
  H  1859  1  0.35434800  0.19182100  0.35447600  1
  H  1860  1  0.50460300  0.16562900  0.29179300  1
  H  1867  1  0.66985700  0.81356900  0.34451300  1
  H  1868  1  0.68639100  0.79319800  0.41025400  1
  H  1875  1  0.56936500  0.89374000  0.30716100  1
  H  1876  1  0.62112800  0.88707400  0.36580200  1
  H  1879  1  0.60351100  0.86636700  0.40182500  1
  H  1880  1  0.62580300  0.80301700  0.31572100  1
  H  1885  1  0.60395400  0.93372700  0.35156200  1
  H  1886  1  0.61263300  0.82545900  0.43181600  1
  H  1887  1  0.70861400  0.77327200  0.35596900  1
  H  1888  1  0.57204200  0.81832200  0.29312000  1
  H  1895  1  0.17582100  0.66679000  0.84296000  1
  H  1896  1  0.19108300  0.68871400  0.90854400  1
  H  1903  1  0.07358710  0.58959700  0.80609400  1
  H  1904  1  0.12621400  0.59457900  0.86435400  1
  H  1907  1  0.10893100  0.61663400  0.90037400  1
  H  1908  1  0.13167300  0.67859900  0.81448100  1
  H  1913  1  0.11150000  0.54691100  0.84543200  1
  H  1914  1  0.11676700  0.65860800  0.92963100  1
  H  1915  1  0.21952800  0.70038300  0.85269100  1
  H  1916  1  0.08062410  0.66479500  0.79061100  1
  H  1923  1  0.90224100  0.32164600  0.84515900  1
  H  1924  1  0.88403500  0.29800400  0.91031100  1
  H  1931  1  0.00746314  0.39628500  0.80910400  1
  H  1932  1  0.95502500  0.39027000  0.86809400  1
  H  1935  1  0.97117400  0.36596100  0.90329800  1
  H  1936  1  0.94604600  0.30885000  0.81619400  1
  H  1941  1  0.97469200  0.43653300  0.85477600  1
  H  1942  1  0.96050100  0.32245500  0.93137100  1
  H  1943  1  0.85336400  0.29505900  0.85440900  1
  H  1944  1  0.99823500  0.32184700  0.79243300  1
  H  1951  1  0.17274900  0.31637700  0.63041200  1
  H  1952  1  0.18821700  0.29455500  0.56455400  1
  H  1959  1  0.07173010  0.39511000  0.66930800  1
  H  1960  1  0.12420400  0.38946800  0.61023900  1
  H  1963  1  0.10566000  0.36813600  0.57423100  1
  H  1964  1  0.12753100  0.30413900  0.65906100  1
  H  1969  1  0.11097700  0.43726400  0.63036700  1
  H  1970  1  0.11337100  0.32576800  0.54462100  1
  H  1971  1  0.21742400  0.28373500  0.62014300  1
  H  1972  1  0.07350510  0.31933200  0.68248400  1
  H  1979  1  0.90699900  0.67032400  0.62996500  1
  H  1980  1  0.89079600  0.69103400  0.56419500  1
  H  1987  1  0.00876114  0.59122000  0.66720000  1
  H  1988  1  0.95680600  0.59767600  0.60861400  1
  H  1991  1  0.97486600  0.61897100  0.57277700  1
  H  1992  1  0.95116400  0.68148500  0.65882000  1
  H  1997  1  0.97455000  0.55111000  0.62268100  1
  H  1998  1  0.96578300  0.66049700  0.54317600  1
  H  1999  1  0.86611700  0.70828800  0.61925000  1
  H  2000  1  0.00535314  0.66658600  0.68136900  1
  H  2007  1  0.90278900  0.31790800  0.13157400  1
  H  2008  1  0.88667900  0.29641400  0.06604400  1
  H  2015  1  0.00443414  0.39556900  0.16834200  1
  H  2016  1  0.95174400  0.39060500  0.11010500  1
  H  2019  1  0.96836700  0.36893400  0.07388200  1
  H  2020  1  0.94700900  0.30632900  0.15987200  1
  H  2025  1  0.96623800  0.43829100  0.12919800  1
  H  2026  1  0.95998300  0.32754400  0.04423000  1
  H  2027  1  0.86150300  0.28127300  0.12166000  1
  H  2028  1  0.99818300  0.32025500  0.18354800  1
  H  2035  1  0.17392400  0.66592000  0.12934200  1
  H  2036  1  0.19152300  0.68921900  0.06409000  1
  H  2043  1  0.06991510  0.58902800  0.16530300  1
  H  2044  1  0.12316500  0.59508600  0.10665900  1
  H  2047  1  0.10793200  0.61800800  0.07109800  1
  H  2048  1  0.13013400  0.67710100  0.15830100  1
  H  2053  1  0.10340800  0.54880900  0.11985900  1
  H  2054  1  0.11779800  0.66005500  0.04232300  1
  H  2055  1  0.21939300  0.69758700  0.12024200  1
  H  2056  1  0.07845310  0.66352900  0.18195200  1
  H  2063  1  0.90408300  0.66608600  0.34375600  1
  H  2064  1  0.88596700  0.68756600  0.40939500  1
  H  2071  1  0.00602914  0.58967500  0.30524400  1
  H  2072  1  0.95444600  0.59535500  0.36466900  1
  H  2075  1  0.97306200  0.61793000  0.40044600  1
  H  2076  1  0.94937300  0.68017100  0.31549400  1
  H  2081  1  0.96727600  0.54758900  0.34443800  1
  H  2082  1  0.96237700  0.65968300  0.43019000  1
  H  2083  1  0.85524900  0.69331200  0.35359800  1
  H  2084  1  0.00368414  0.66542500  0.29196500  1
  H  2091  1  0.17100700  0.31495200  0.34426000  1
  H  2092  1  0.18784400  0.29360800  0.40983300  1
  H  2099  1  0.06894710  0.39355100  0.30739900  1
  H  2100  1  0.12079700  0.38700100  0.36602100  1
  H  2103  1  0.10344700  0.36553600  0.40187100  1
  H  2104  1  0.12693000  0.30347600  0.31555900  1
  H  2109  1  0.10274600  0.43350400  0.35219500  1
  H  2110  1  0.11352500  0.32472800  0.43163200  1
  H  2111  1  0.21692800  0.28343600  0.35385100  1
  H  2112  1  0.07304210  0.31825200  0.29291700  1
  H  2119  1  0.60702100  0.15719200  0.96944100  1
  H  2131  1  0.47142500  0.82572500  0.97034600  1
  H  2143  1  0.60390200  0.82828700  0.50582100  1
  H  2155  1  0.47533000  0.15947300  0.50374400  1
  H  2167  1  0.10809300  0.65575000  0.96904400  1
  H  2179  1  0.96942200  0.32876400  0.97026900  1
  H  2191  1  0.10432400  0.32927900  0.50539600  1
  H  2203  1  0.97400900  0.65748600  0.50358200  1
  H  2215  1  0.59892100  0.99671700  0.83279000  1
  H  2227  1  0.59874300  0.98757200  0.64270800  1
  H  2239  1  0.48022500  0.98769700  0.14060000  1
  H  2251  1  0.48059900  0.99782500  0.33263800  1
  H  2263  1  0.09840810  0.49676000  0.83343400  1
  H  2275  1  0.09806410  0.48753700  0.64222800  1
  H  2287  1  0.97946400  0.48847400  0.14133400  1
  H  2299  1  0.97989700  0.49741800  0.33203600  1
  H  2311  1  0.78769300  0.20371900  0.90763800  1
  H  2323  1  0.30456300  0.76505000  0.84792800  1
  H  2335  1  0.77905700  0.77074100  0.62383000  1
  H  2347  1  0.30344700  0.22013300  0.62536000  1
  H  2359  1  0.30361100  0.76211900  0.12754100  1
  H  2371  1  0.77535900  0.21797700  0.12641900  1
  H  2383  1  0.30348000  0.21952300  0.34845100  1
  H  2395  1  0.78654100  0.78233500  0.40731000  1
  H  2407  1  0.53286700  0.17741400  0.71940900  1
  H  2419  1  0.54501600  0.80943600  0.72055600  1
  H  2431  1  0.54364000  0.80787000  0.25536300  1
  H  2443  1  0.53328500  0.17580000  0.25344900  1
  H  2455  1  0.03406610  0.67708900  0.71906800  1
  H  2467  1  0.04443810  0.30904700  0.72085000  1
  H  2479  1  0.04484410  0.30776300  0.25502000  1
  H  2491  1  0.03267710  0.67584400  0.25373800  1
  C  1  1  0.09292900  0.15025900  0.86472900  1
  C  2  1  0.12105100  0.16699600  0.85925300  1
  C  3  1  0.13990300  0.18149300  0.87518800  1
  C  4  1  0.13021000  0.17859800  0.89733200  1
  C  5  1  0.10260500  0.16199800  0.90388200  1
  C  6  1  0.08407400  0.14806600  0.88728800  1
  C  9  1  0.07539900  0.13470800  0.84794400  1
  C  10  1  0.06309500  0.14765500  0.82838900  1
  C  11  1  0.04542500  0.13147400  0.81245500  1
  C  12  1  0.04027000  0.10183700  0.81687300  1
  C  13  1  0.05239300  0.08817200  0.83580600  1
  C  14  1  0.07058700  0.10470600  0.85073700  1
  C  21  1  0.04732000  0.05895800  0.83938900  1
  C  22  1  0.09338600  0.16046400  0.92602800  1
  C  23  1  0.16621700  0.19928900  0.86906500  1
  C  24  1  0.03300600  0.14374900  0.79298800  1
  C  29  1  0.89393300  0.83482800  0.86687700  1
  C  30  1  0.86439700  0.82046400  0.86116100  1
  C  31  1  0.84427400  0.80608300  0.87673800  1
  C  32  1  0.85404600  0.80711300  0.89888100  1
  C  33  1  0.88305800  0.82141100  0.90564300  1
  C  34  1  0.90290500  0.83501900  0.88933900  1
  C  37  1  0.91250300  0.85051700  0.85049200  1
  C  38  1  0.92405500  0.83820100  0.83041000  1
  C  39  1  0.94253200  0.85456100  0.81479300  1
  C  40  1  0.94905800  0.88374600  0.82000000  1
  C  41  1  0.93773700  0.89690000  0.83953000  1
  C  42  1  0.91895600  0.88005200  0.85421300  1
  C  49  1  0.94407900  0.92574800  0.84427300  1
  C  50  1  0.89225300  0.82144500  0.92769800  1
  C  51  1  0.81561000  0.79169800  0.87013100  1
  C  52  1  0.95438200  0.84276000  0.79488500  1
  C  57  1  0.09097300  0.83404400  0.60930200  1
  C  58  1  0.12094300  0.81945100  0.61449800  1
  C  59  1  0.14103600  0.80568200  0.59841900  1
  C  60  1  0.13067600  0.80730700  0.57642000  1
  C  61  1  0.10112600  0.82188600  0.57020800  1
  C  62  1  0.08146600  0.83517900  0.58696400  1
  C  65  1  0.07300600  0.84962800  0.62611500  1
  C  66  1  0.06097400  0.83673200  0.64577200  1
  C  67  1  0.04350200  0.85321000  0.66203000  1
  C  68  1  0.03860600  0.88304500  0.65794400  1
  C  69  1  0.05073600  0.89655200  0.63889900  1
  C  70  1  0.06835400  0.87970800  0.62343800  1
  C  77  1  0.04622700  0.92590400  0.63563000  1
  C  78  1  0.09143300  0.82271100  0.54824800  1
  C  79  1  0.17059700  0.79175100  0.60438700  1
  C  80  1  0.03078200  0.84096800  0.68141600  1
  C  85  1  0.89774800  0.15367400  0.60824500  1
  C  86  1  0.86765100  0.16809500  0.61383300  1
  C  87  1  0.84730300  0.18166500  0.59802500  1
  C  88  1  0.85750500  0.17987900  0.57586700  1
  C  89  1  0.88712900  0.16549300  0.56923200  1
  C  90  1  0.90712400  0.15258500  0.58574200  1
  C  93  1  0.91587800  0.13802400  0.62479900  1
  C  94  1  0.92714700  0.15043700  0.64468400  1
  C  95  1  0.94490600  0.13379400  0.66051100  1
  C  96  1  0.95088600  0.10424200  0.65575100  1
  C  97  1  0.93962800  0.09105000  0.63645200  1
  C  98  1  0.92167600  0.10818900  0.62151800  1
  C  105  1  0.94536800  0.06194500  0.63198000  1
  C  106  1  0.89646400  0.16450500  0.54708000  1
  C  107  1  0.81780300  0.19577000  0.60437400  1
  C  108  1  0.95697900  0.14570300  0.68007300  1
  C  113  1  0.89292700  0.83445300  0.10958300  1
  C  114  1  0.86368400  0.81941800  0.11535000  1
  C  115  1  0.84387400  0.80528200  0.09972300  1
  C  116  1  0.85372900  0.80719100  0.07752100  1
  C  117  1  0.88239000  0.82220200  0.07065600  1
  C  118  1  0.90188900  0.83560600  0.08700600  1
  C  121  1  0.91106200  0.84991500  0.12609200  1
  C  122  1  0.92287700  0.83713300  0.14582900  1
  C  123  1  0.94073000  0.85331600  0.16166800  1
  C  124  1  0.94636600  0.88282300  0.15701500  1
  C  125  1  0.93468600  0.89632900  0.13788900  1
  C  126  1  0.91651000  0.87975900  0.12297300  1
  C  133  1  0.93993600  0.92548400  0.13416400  1
  C  134  1  0.89123300  0.82317200  0.04840900  1
  C  135  1  0.81539000  0.79026800  0.10623200  1
  C  136  1  0.95270300  0.84118600  0.18131100  1
  C  141  1  0.09256800  0.14979100  0.10750400  1
  C  142  1  0.12200400  0.16419700  0.11336400  1
  C  143  1  0.14230400  0.17849500  0.09786300  1
  C  144  1  0.13290900  0.17728300  0.07566300  1
  C  145  1  0.10405100  0.16287500  0.06874600  1
  C  146  1  0.08394700  0.14939700  0.08497800  1
  C  149  1  0.07389000  0.13414100  0.12384400  1
  C  150  1  0.06221200  0.14649700  0.14388100  1
  C  151  1  0.04379000  0.13012100  0.15951400  1
  C  152  1  0.03742600  0.10088900  0.15436600  1
  C  153  1  0.04889000  0.08771300  0.13487900  1
  C  154  1  0.06762800  0.10456600  0.12018200  1
  C  161  1  0.04275600  0.05882800  0.13018200  1
  C  162  1  0.09549700  0.16240000  0.04657600  1
  C  163  1  0.17094800  0.19278600  0.10454500  1
  C  164  1  0.03184500  0.14196400  0.17937800  1
  C  169  1  0.89595300  0.15161400  0.36519100  1
  C  170  1  0.86620400  0.16642100  0.35977800  1
  C  171  1  0.84591800  0.18032300  0.37569000  1
  C  172  1  0.85589100  0.17857800  0.39776300  1
  C  173  1  0.88515400  0.16376000  0.40423100  1
  C  174  1  0.90502300  0.15038200  0.38761700  1
  C  177  1  0.91408600  0.13599300  0.34844500  1
  C  178  1  0.92603100  0.14880200  0.32872100  1
  C  179  1  0.94343200  0.13227300  0.31246000  1
  C  180  1  0.94837900  0.10246400  0.31661500  1
  C  181  1  0.93638600  0.08902200  0.33572600  1
  C  182  1  0.91881300  0.10592600  0.35117700  1
  C  189  1  0.94097100  0.05967500  0.33904900  1
  C  190  1  0.89416900  0.16277600  0.42633300  1
  C  191  1  0.81672900  0.19471600  0.36947100  1
  C  192  1  0.95600100  0.14441900  0.29298700  1
  C  197  1  0.08788200  0.83155100  0.36614800  1
  C  198  1  0.11648500  0.81493900  0.36055400  1
  C  199  1  0.13607300  0.80082700  0.37647000  1
  C  200  1  0.12667900  0.80389600  0.39865500  1
  C  201  1  0.09863800  0.82047200  0.40531500  1
  C  202  1  0.07930800  0.83404600  0.38875400  1
  C  205  1  0.07024800  0.84732100  0.34938100  1
  C  206  1  0.05833800  0.83477800  0.32969200  1
  C  207  1  0.04101100  0.85150200  0.31369900  1
  C  208  1  0.03588200  0.88124100  0.31814300  1
  C  209  1  0.04770100  0.89454300  0.33723900  1
  C  210  1  0.06544800  0.87736500  0.35224900  1
  C  217  1  0.04255200  0.92377300  0.34145200  1
  C  218  1  0.09016000  0.82258300  0.42756700  1
  C  219  1  0.16301500  0.78334900  0.37029000  1
  C  220  1  0.02844300  0.83951800  0.29430200  1
  C  225  1  0.59362900  0.65006000  0.86458900  1
  C  226  1  0.62229900  0.66600200  0.85898400  1
  C  227  1  0.64160700  0.68036100  0.87477100  1
  C  228  1  0.63168600  0.67804100  0.89693800  1
  C  229  1  0.60362800  0.66211400  0.90363900  1
  C  230  1  0.58471000  0.64835400  0.88715400  1
  C  233  1  0.57576700  0.63458400  0.84792900  1
  C  234  1  0.56365700  0.64750500  0.82831500  1
  C  235  1  0.54575300  0.63139100  0.81245700  1
  C  236  1  0.54025500  0.60183400  0.81699300  1
  C  237  1  0.55219000  0.58819300  0.83599100  1
  C  238  1  0.57053800  0.60467100  0.85087500  1
  C  245  1  0.54687300  0.55903200  0.83966100  1
  C  246  1  0.59445100  0.66087200  0.92581900  1
  C  247  1  0.66906800  0.69683500  0.86846500  1
  C  248  1  0.53351000  0.64364300  0.79292700  1
  C  253  1  0.39272200  0.33555600  0.86697200  1
  C  254  1  0.36319200  0.32129200  0.86115900  1
  C  255  1  0.34280800  0.30703900  0.87665600  1
  C  256  1  0.35228100  0.30811700  0.89885300  1
  C  257  1  0.38128600  0.32236100  0.90572500  1
  C  258  1  0.40139300  0.33584300  0.88948300  1
  C  261  1  0.41149300  0.35106800  0.85058700  1
  C  262  1  0.42299000  0.33863000  0.83052900  1
  C  263  1  0.44147100  0.35487600  0.81484000  1
  C  264  1  0.44804000  0.38408400  0.81994800  1
  C  265  1  0.43676700  0.39734500  0.83945000  1
  C  266  1  0.41800200  0.38060900  0.85421200  1
  C  273  1  0.44311700  0.42620900  0.84409500  1
  C  274  1  0.39033600  0.32243100  0.92781000  1
  C  275  1  0.31427100  0.29270300  0.86978500  1
  C  276  1  0.45329300  0.34294300  0.79496500  1
  C  281  1  0.59043800  0.33366500  0.60925800  1
  C  282  1  0.61927600  0.31738600  0.61446600  1
  C  283  1  0.63877100  0.30298700  0.59836700  1
  C  284  1  0.62873900  0.30541700  0.57633900  1
  C  285  1  0.60047500  0.32176700  0.57006600  1
  C  286  1  0.58148000  0.33574500  0.58683800  1
  C  289  1  0.57272600  0.34931100  0.62622600  1
  C  290  1  0.56034700  0.33635200  0.64579000  1
  C  291  1  0.54291500  0.35280400  0.66209400  1
  C  292  1  0.53821900  0.38267700  0.65809900  1
  C  293  1  0.55056900  0.39626900  0.63915200  1
  C  294  1  0.56834000  0.37946100  0.62373400  1
  C  301  1  0.54595600  0.42563200  0.63591000  1
  C  302  1  0.59112100  0.32322400  0.54804700  1
  C  303  1  0.66624000  0.28604300  0.60437400  1
  C  304  1  0.52997800  0.34053600  0.68142700  1
  C  309  1  0.39718700  0.65310300  0.60840200  1
  C  310  1  0.36822500  0.66925900  0.61394200  1
  C  311  1  0.34852400  0.68327700  0.59802100  1
  C  312  1  0.35825000  0.68050600  0.57584600  1
  C  313  1  0.38670300  0.66442100  0.56925200  1
  C  314  1  0.40606700  0.65094500  0.58583800  1
  C  317  1  0.41493700  0.63739100  0.62514300  1
  C  318  1  0.42676000  0.64997100  0.64483500  1
  C  319  1  0.44433500  0.63333700  0.66076300  1
  C  320  1  0.44975600  0.60364700  0.65625800  1
  C  321  1  0.43801600  0.59029900  0.63715800  1
  C  322  1  0.42006100  0.60739700  0.62219700  1
  C  329  1  0.44344300  0.56110400  0.63289000  1
  C  330  1  0.39573900  0.66271000  0.54707000  1
  C  331  1  0.32094700  0.70005000  0.60426600  1
  C  332  1  0.45687500  0.64537100  0.68014800  1
  C  337  1  0.39220600  0.33506800  0.10978000  1
  C  338  1  0.36377500  0.31887400  0.11551300  1
  C  339  1  0.34438100  0.30449200  0.09980300  1
  C  340  1  0.35386900  0.30710300  0.07758600  1
  C  341  1  0.38165600  0.32327600  0.07073800  1
  C  342  1  0.40074100  0.33701100  0.08715100  1
  C  345  1  0.41014300  0.35053400  0.12641700  1
  C  346  1  0.42235300  0.33759500  0.14600200  1
  C  347  1  0.44016000  0.35372900  0.16189600  1
  C  348  1  0.44549000  0.38332500  0.15742300  1
  C  349  1  0.43346600  0.39698400  0.13845700  1
  C  350  1  0.41520000  0.38048600  0.12354200  1
  C  357  1  0.43864200  0.42618100  0.13485100  1
  C  358  1  0.39018700  0.32481400  0.04845300  1
  C  359  1  0.31728900  0.28766700  0.10621400  1
  C  360  1  0.45249200  0.34145500  0.18139400  1
  C  365  1  0.59215900  0.65010600  0.10746800  1
  C  366  1  0.62088200  0.66559900  0.11330400  1
  C  367  1  0.64083200  0.68020000  0.09775900  1
  C  368  1  0.63160500  0.67845000  0.07554700  1
  C  369  1  0.60360600  0.66287600  0.06860400  1
  C  370  1  0.58391600  0.64901700  0.08487600  1
  C  373  1  0.57362300  0.63444700  0.12393100  1
  C  374  1  0.56170200  0.64688500  0.14389700  1
  C  375  1  0.54328900  0.63054600  0.15957300  1
  C  376  1  0.53704600  0.60127400  0.15450300  1
  C  377  1  0.54867600  0.58800200  0.13509900  1
  C  378  1  0.56754600  0.60479400  0.12042800  1
  C  385  1  0.54249700  0.55910200  0.13045300  1
  C  386  1  0.59535300  0.66192000  0.04637800  1
  C  387  1  0.66806600  0.69649300  0.10442900  1
  C  388  1  0.53120900  0.64243000  0.17940400  1
  C  393  1  0.39476200  0.65088600  0.36524300  1
  C  394  1  0.36510900  0.66575900  0.35975000  1
  C  395  1  0.34463700  0.67959100  0.37560100  1
  C  396  1  0.35430500  0.67766500  0.39772700  1
  C  397  1  0.38347600  0.66276100  0.40428300  1
  C  398  1  0.40353400  0.64947600  0.38771500  1
  C  401  1  0.41305200  0.63542100  0.34848200  1
  C  402  1  0.42499400  0.64835700  0.32880000  1
  C  403  1  0.44239800  0.63194000  0.31246900  1
  C  404  1  0.44734500  0.60210700  0.31651400  1
  C  405  1  0.43534800  0.58855000  0.33557600  1
  C  406  1  0.41778100  0.60534000  0.35109700  1
  C  413  1  0.43993600  0.55919800  0.33879800  1
  C  414  1  0.39235400  0.66169000  0.42641300  1
  C  415  1  0.31578500  0.69430700  0.36913700  1
  C  416  1  0.45498400  0.64421400  0.29304300  1
  C  421  1  0.58853800  0.33166400  0.36603400  1
  C  422  1  0.61763900  0.31580700  0.36031900  1
  C  423  1  0.63763100  0.30173100  0.37607000  1
  C  424  1  0.62790400  0.30414200  0.39827300  1
  C  425  1  0.59952200  0.32017200  0.40508900  1
  C  426  1  0.57990100  0.33366800  0.38864700  1
  C  429  1  0.57054900  0.34734900  0.34938900  1
  C  430  1  0.55882800  0.33482200  0.32964300  1
  C  431  1  0.54120000  0.35146000  0.31374300  1
  C  432  1  0.53563900  0.38111100  0.31832600  1
  C  433  1  0.54726900  0.39440600  0.33748000  1
  C  434  1  0.56525600  0.37730300  0.35241900  1
  C  441  1  0.54175900  0.42357000  0.34181000  1
  C  442  1  0.59107100  0.32200500  0.42737400  1
  C  443  1  0.66543800  0.28523300  0.36967500  1
  C  444  1  0.52880800  0.33948500  0.29428600  1
  C  449  1  0.11536600  0.16203200  0.00930800  1
  C  451  1  0.08368100  0.15905900  0.97635400  1
  C  452  1  0.11274200  0.16149900  0.96341100  1
  C  454  1  0.14458400  0.16437100  0.99647300  1
  C  461  1  0.87128300  0.82250100  0.01128100  1
  C  463  1  0.90251200  0.82429700  0.97770200  1
  C  464  1  0.87318900  0.82228100  0.96531800  1
  C  466  1  0.84180700  0.82057000  0.99901800  1
  C  473  1  0.11081000  0.82191600  0.46451900  1
  C  475  1  0.08029200  0.82570500  0.49829700  1
  C  476  1  0.10974800  0.82236800  0.51045200  1
  C  478  1  0.14042900  0.81868300  0.47655000  1
  C  485  1  0.87464800  0.16372400  0.46377700  1
  C  487  1  0.90632700  0.16131900  0.49678400  1
  C  488  1  0.87716900  0.16403200  0.50968000  1
  C  490  1  0.84533600  0.16634400  0.47656200  1
  C  497  1  0.61567900  0.66241400  0.00918600  1
  C  499  1  0.58455700  0.65843800  0.97606000  1
  C  500  1  0.61360400  0.66189200  0.96324700  1
  C  502  1  0.64490300  0.66576300  0.99649200  1
  C  509  1  0.36990800  0.32341200  0.01140500  1
  C  511  1  0.40068400  0.32643100  0.97770500  1
  C  512  1  0.37139900  0.32329300  0.96542600  1
  C  514  1  0.34046000  0.32038000  0.99925400  1
  C  521  1  0.61150200  0.32141600  0.46436900  1
  C  523  1  0.58072300  0.32614500  0.49800000  1
  C  524  1  0.60991000  0.32213100  0.51032500  1
  C  526  1  0.64087000  0.31753700  0.47657200  1
  C  533  1  0.37299000  0.66262000  0.46385800  1
  C  535  1  0.40496100  0.65964500  0.49673200  1
  C  536  1  0.37599800  0.66283200  0.50976000  1
  C  538  1  0.34386500  0.66568000  0.47678200  1
  C  545  1  0.97941500  0.96611700  0.83747700  1
  C  547  1  0.02767900  0.99570400  0.83515400  1
  C  548  1  0.00791600  0.02085900  0.83748500  1
  C  550  1  0.95929600  0.99127600  0.83958600  1
  C  557  1  0.97984000  0.02059600  0.63859400  1
  C  559  1  0.02756900  0.98945700  0.64046000  1
  C  560  1  0.00740100  0.96504200  0.63807000  1
  C  562  1  0.95931700  0.99617700  0.63640900  1
  C  569  1  0.00741000  0.01845400  0.13672900  1
  C  571  1  0.95920100  0.98876600  0.13853300  1
  C  572  1  0.97911500  0.96365400  0.13651400  1
  C  574  1  0.02767300  0.99333900  0.13493400  1
  C  581  1  0.00747100  0.96499200  0.33547700  1
  C  583  1  0.95956300  0.99601800  0.33437200  1
  C  584  1  0.97976300  0.02050300  0.33618600  1
  C  586  1  0.02801200  0.98948400  0.33707400  1
  C  593  1  0.47869500  0.46639400  0.83740700  1
  C  595  1  0.52710600  0.49583000  0.83551400  1
  C  596  1  0.50737200  0.52104900  0.83751500  1
  C  598  1  0.45860600  0.49161500  0.83917800  1
  C  605  1  0.47870400  0.52001000  0.63898900  1
  C  607  1  0.52679700  0.48921500  0.64034900  1
  C  608  1  0.50680000  0.46462300  0.63839600  1
  C  610  1  0.45835800  0.49541300  0.63724300  1
  C  617  1  0.50682200  0.51886700  0.13699300  1
  C  619  1  0.45842000  0.48941600  0.13910100  1
  C  620  1  0.47812000  0.46420800  0.13690000  1
  C  622  1  0.52686900  0.49364600  0.13501300  1
  C  629  1  0.50677400  0.46473200  0.33552600  1
  C  631  1  0.45882000  0.49565300  0.33402500  1
  C  632  1  0.47890200  0.52016800  0.33613600  1
  C  634  1  0.52720200  0.48925400  0.33742000  1
  C  641  1  0.27104300  0.25902400  0.87981700  1
  C  643  1  0.24221700  0.21907900  0.89569300  1
  C  644  1  0.21667900  0.22166400  0.88027900  1
  C  646  1  0.24513000  0.26214200  0.86440900  1
  C  653  1  0.71790400  0.72151100  0.88128500  1
  C  655  1  0.75326600  0.75438900  0.86210300  1
  C  656  1  0.77318000  0.75772800  0.88077100  1
  C  658  1  0.73769100  0.72477100  0.90002900  1
  C  665  1  0.26936800  0.72136300  0.59264900  1
  C  667  1  0.23581300  0.75723800  0.61079200  1
  C  668  1  0.21236600  0.75657600  0.59380600  1
  C  670  1  0.24600200  0.72053900  0.57560900  1
  C  677  1  0.71733000  0.26395300  0.59180600  1
  C  679  1  0.75282700  0.23121000  0.61128300  1
  C  680  1  0.77443700  0.22891900  0.59306700  1
  C  682  1  0.73883500  0.26174500  0.57351100  1
  C  689  1  0.71703400  0.72185100  0.09231800  1
  C  691  1  0.75238800  0.75275900  0.11289600  1
  C  692  1  0.77246800  0.75770100  0.09428000  1
  C  694  1  0.73697600  0.72675300  0.07361200  1
  C  701  1  0.26812400  0.26348100  0.09379900  1
  C  703  1  0.23353800  0.22963900  0.11258900  1
  C  704  1  0.21259100  0.22762100  0.09430300  1
  C  706  1  0.24724800  0.26160600  0.07545400  1
  C  713  1  0.71627600  0.26308000  0.38209500  1
  C  715  1  0.75236200  0.23045500  0.36257900  1
  C  716  1  0.77325700  0.22790500  0.38087600  1
  C  718  1  0.73701600  0.26059100  0.40048700  1
  C  725  1  0.27103300  0.72634000  0.38015000  1
  C  727  1  0.24123700  0.76649200  0.39572500  1
  C  728  1  0.21509600  0.76283700  0.38095600  1
  C  730  1  0.24448700  0.72205000  0.36548800  1
  C  737  1  0.00780700  0.13047700  0.75779900  1
  C  739  1  0.98936600  0.15775200  0.72670800  1
  C  740  1  0.97938600  0.13232700  0.71604000  1
  C  742  1  0.99782400  0.10497500  0.74718700  1
  C  749  1  0.98049400  0.85619900  0.75987400  1
  C  751  1  0.99740100  0.82896500  0.72820200  1
  C  752  1  0.00900600  0.85417200  0.71785600  1
  C  754  1  0.99211600  0.88147700  0.74957800  1
  C  761  1  0.97852300  0.85449600  0.21628300  1
  C  763  1  0.99571400  0.82741400  0.24778200  1
  C  764  1  0.00679900  0.85273300  0.25809400  1
  C  766  1  0.98960900  0.87989300  0.22654300  1
  C  773  1  0.00622600  0.12864100  0.21454300  1
  C  775  1  0.98893500  0.15616300  0.24598900  1
  C  776  1  0.97784500  0.13096600  0.25659300  1
  C  778  1  0.99512100  0.10337000  0.22509800  1
  C  785  1  0.50751300  0.63040800  0.75797500  1
  C  787  1  0.48987800  0.65752400  0.72660200  1
  C  788  1  0.47891500  0.63218200  0.71626400  1
  C  790  1  0.49654700  0.60498800  0.74769100  1
  C  797  1  0.47920800  0.35614300  0.75981700  1
  C  799  1  0.49652400  0.32866400  0.72834300  1
  C  800  1  0.50785600  0.35384200  0.71782300  1
  C  802  1  0.49054000  0.38139400  0.74933800  1
  C  809  1  0.47790800  0.35467900  0.21653300  1
  C  811  1  0.49618400  0.32741200  0.24767700  1
  C  812  1  0.50645600  0.35280300  0.25826500  1
  C  814  1  0.48817500  0.38014700  0.22706800  1
  C  821  1  0.50525000  0.62903600  0.21451000  1
  C  823  1  0.48812800  0.65629400  0.24613700  1
  C  824  1  0.47676000  0.63105600  0.25655900  1
  C  826  1  0.49385300  0.60373000  0.22488100  1
  C  833  1  0.36600900  0.15025900  0.86472900  1
  C  834  1  0.39413100  0.16699600  0.85925300  1
  C  835  1  0.41298300  0.18149300  0.87518800  1
  C  836  1  0.40329000  0.17859800  0.89733200  1
  C  837  1  0.37568500  0.16199800  0.90388200  1
  C  838  1  0.35715400  0.14806600  0.88728800  1
  C  841  1  0.34847900  0.13470800  0.84794400  1
  C  842  1  0.33617500  0.14765500  0.82838900  1
  C  843  1  0.31850500  0.13147400  0.81245500  1
  C  844  1  0.31335000  0.10183700  0.81687300  1
  C  845  1  0.32547300  0.08817200  0.83580600  1
  C  846  1  0.34366700  0.10470600  0.85073700  1
  C  853  1  0.32040000  0.05895800  0.83938900  1
  C  854  1  0.36646600  0.16046400  0.92602800  1
  C  855  1  0.43929700  0.19928900  0.86906500  1
  C  856  1  0.30608600  0.14374900  0.79298800  1
  C  861  1  0.16701300  0.83482800  0.86687700  1
  C  862  1  0.13747700  0.82046400  0.86116100  1
  C  863  1  0.11735400  0.80608300  0.87673800  1
  C  864  1  0.12712600  0.80711300  0.89888100  1
  C  865  1  0.15613800  0.82141100  0.90564300  1
  C  866  1  0.17598500  0.83501900  0.88933900  1
  C  869  1  0.18558300  0.85051700  0.85049200  1
  C  870  1  0.19713500  0.83820100  0.83041000  1
  C  871  1  0.21561200  0.85456100  0.81479300  1
  C  872  1  0.22213800  0.88374600  0.82000000  1
  C  873  1  0.21081700  0.89690000  0.83953000  1
  C  874  1  0.19203600  0.88005200  0.85421300  1
  C  881  1  0.21715900  0.92574800  0.84427300  1
  C  882  1  0.16533300  0.82144500  0.92769800  1
  C  883  1  0.08868960  0.79169800  0.87013100  1
  C  884  1  0.22746200  0.84276000  0.79488500  1
  C  889  1  0.36405300  0.83404400  0.60930200  1
  C  890  1  0.39402300  0.81945100  0.61449800  1
  C  891  1  0.41411600  0.80568200  0.59841900  1
  C  892  1  0.40375600  0.80730700  0.57642000  1
  C  893  1  0.37420600  0.82188600  0.57020800  1
  C  894  1  0.35454600  0.83517900  0.58696400  1
  C  897  1  0.34608600  0.84962800  0.62611500  1
  C  898  1  0.33405400  0.83673200  0.64577200  1
  C  899  1  0.31658200  0.85321000  0.66203000  1
  C  900  1  0.31168600  0.88304500  0.65794400  1
  C  901  1  0.32381600  0.89655200  0.63889900  1
  C  902  1  0.34143400  0.87970800  0.62343800  1
  C  909  1  0.31930700  0.92590400  0.63563000  1
  C  910  1  0.36451300  0.82271100  0.54824800  1
  C  911  1  0.44367700  0.79175100  0.60438700  1
  C  912  1  0.30386200  0.84096800  0.68141600  1
  C  917  1  0.17082800  0.15367400  0.60824500  1
  C  918  1  0.14073100  0.16809500  0.61383300  1
  C  919  1  0.12038300  0.18166500  0.59802500  1
  C  920  1  0.13058500  0.17987900  0.57586700  1
  C  921  1  0.16020900  0.16549300  0.56923200  1
  C  922  1  0.18020400  0.15258500  0.58574200  1
  C  925  1  0.18895800  0.13802400  0.62479900  1
  C  926  1  0.20022700  0.15043700  0.64468400  1
  C  927  1  0.21798600  0.13379400  0.66051100  1
  C  928  1  0.22396600  0.10424200  0.65575100  1
  C  929  1  0.21270800  0.09105000  0.63645200  1
  C  930  1  0.19475600  0.10818900  0.62151800  1
  C  937  1  0.21844800  0.06194500  0.63198000  1
  C  938  1  0.16954400  0.16450500  0.54708000  1
  C  939  1  0.09088260  0.19577000  0.60437400  1
  C  940  1  0.23005900  0.14570300  0.68007300  1
  C  945  1  0.16600700  0.83445300  0.10958300  1
  C  946  1  0.13676400  0.81941800  0.11535000  1
  C  947  1  0.11695400  0.80528200  0.09972300  1
  C  948  1  0.12680900  0.80719100  0.07752100  1
  C  949  1  0.15547000  0.82220200  0.07065600  1
  C  950  1  0.17496900  0.83560600  0.08700600  1
  C  953  1  0.18414200  0.84991500  0.12609200  1
  C  954  1  0.19595700  0.83713300  0.14582900  1
  C  955  1  0.21381000  0.85331600  0.16166800  1
  C  956  1  0.21944600  0.88282300  0.15701500  1
  C  957  1  0.20776600  0.89632900  0.13788900  1
  C  958  1  0.18959000  0.87975900  0.12297300  1
  C  965  1  0.21301600  0.92548400  0.13416400  1
  C  966  1  0.16431300  0.82317200  0.04840900  1
  C  967  1  0.08846960  0.79026800  0.10623200  1
  C  968  1  0.22578300  0.84118600  0.18131100  1
  C  973  1  0.36564800  0.14979100  0.10750400  1
  C  974  1  0.39508400  0.16419700  0.11336400  1
  C  975  1  0.41538400  0.17849500  0.09786300  1
  C  976  1  0.40598900  0.17728300  0.07566300  1
  C  977  1  0.37713100  0.16287500  0.06874600  1
  C  978  1  0.35702700  0.14939700  0.08497800  1
  C  981  1  0.34697000  0.13414100  0.12384400  1
  C  982  1  0.33529200  0.14649700  0.14388100  1
  C  983  1  0.31687000  0.13012100  0.15951400  1
  C  984  1  0.31050600  0.10088900  0.15436600  1
  C  985  1  0.32197000  0.08771300  0.13487900  1
  C  986  1  0.34070800  0.10456600  0.12018200  1
  C  993  1  0.31583600  0.05882800  0.13018200  1
  C  994  1  0.36857700  0.16240000  0.04657600  1
  C  995  1  0.44402800  0.19278600  0.10454500  1
  C  996  1  0.30492500  0.14196400  0.17937800  1
  C  1001  1  0.16903300  0.15161400  0.36519100  1
  C  1002  1  0.13928400  0.16642100  0.35977800  1
  C  1003  1  0.11899800  0.18032300  0.37569000  1
  C  1004  1  0.12897100  0.17857800  0.39776300  1
  C  1005  1  0.15823400  0.16376000  0.40423100  1
  C  1006  1  0.17810300  0.15038200  0.38761700  1
  C  1009  1  0.18716600  0.13599300  0.34844500  1
  C  1010  1  0.19911100  0.14880200  0.32872100  1
  C  1011  1  0.21651200  0.13227300  0.31246000  1
  C  1012  1  0.22145900  0.10246400  0.31661500  1
  C  1013  1  0.20946600  0.08902200  0.33572600  1
  C  1014  1  0.19189300  0.10592600  0.35117700  1
  C  1021  1  0.21405100  0.05967500  0.33904900  1
  C  1022  1  0.16724900  0.16277600  0.42633300  1
  C  1023  1  0.08980860  0.19471600  0.36947100  1
  C  1024  1  0.22908100  0.14441900  0.29298700  1
  C  1029  1  0.36096200  0.83155100  0.36614800  1
  C  1030  1  0.38956500  0.81493900  0.36055400  1
  C  1031  1  0.40915300  0.80082700  0.37647000  1
  C  1032  1  0.39975900  0.80389600  0.39865500  1
  C  1033  1  0.37171800  0.82047200  0.40531500  1
  C  1034  1  0.35238800  0.83404600  0.38875400  1
  C  1037  1  0.34332800  0.84732100  0.34938100  1
  C  1038  1  0.33141800  0.83477800  0.32969200  1
  C  1039  1  0.31409100  0.85150200  0.31369900  1
  C  1040  1  0.30896200  0.88124100  0.31814300  1
  C  1041  1  0.32078100  0.89454300  0.33723900  1
  C  1042  1  0.33852800  0.87736500  0.35224900  1
  C  1049  1  0.31563200  0.92377300  0.34145200  1
  C  1050  1  0.36324000  0.82258300  0.42756700  1
  C  1051  1  0.43609500  0.78334900  0.37029000  1
  C  1052  1  0.30152300  0.83951800  0.29430200  1
  C  1057  1  0.86670900  0.65006000  0.86458900  1
  C  1058  1  0.89537900  0.66600200  0.85898400  1
  C  1059  1  0.91468700  0.68036100  0.87477100  1
  C  1060  1  0.90476600  0.67804100  0.89693800  1
  C  1061  1  0.87670800  0.66211400  0.90363900  1
  C  1062  1  0.85779000  0.64835400  0.88715400  1
  C  1065  1  0.84884700  0.63458400  0.84792900  1
  C  1066  1  0.83673700  0.64750500  0.82831500  1
  C  1067  1  0.81883300  0.63139100  0.81245700  1
  C  1068  1  0.81333500  0.60183400  0.81699300  1
  C  1069  1  0.82527000  0.58819300  0.83599100  1
  C  1070  1  0.84361800  0.60467100  0.85087500  1
  C  1077  1  0.81995300  0.55903200  0.83966100  1
  C  1078  1  0.86753100  0.66087200  0.92581900  1
  C  1079  1  0.94214800  0.69683500  0.86846500  1
  C  1080  1  0.80659000  0.64364300  0.79292700  1
  C  1085  1  0.66580200  0.33555600  0.86697200  1
  C  1086  1  0.63627200  0.32129200  0.86115900  1
  C  1087  1  0.61588800  0.30703900  0.87665600  1
  C  1088  1  0.62536100  0.30811700  0.89885300  1
  C  1089  1  0.65436600  0.32236100  0.90572500  1
  C  1090  1  0.67447300  0.33584300  0.88948300  1
  C  1093  1  0.68457300  0.35106800  0.85058700  1
  C  1094  1  0.69607000  0.33863000  0.83052900  1
  C  1095  1  0.71455100  0.35487600  0.81484000  1
  C  1096  1  0.72112000  0.38408400  0.81994800  1
  C  1097  1  0.70984700  0.39734500  0.83945000  1
  C  1098  1  0.69108200  0.38060900  0.85421200  1
  C  1105  1  0.71619700  0.42620900  0.84409500  1
  C  1106  1  0.66341600  0.32243100  0.92781000  1
  C  1107  1  0.58735100  0.29270300  0.86978500  1
  C  1108  1  0.72637300  0.34294300  0.79496500  1
  C  1113  1  0.86351800  0.33366500  0.60925800  1
  C  1114  1  0.89235600  0.31738600  0.61446600  1
  C  1115  1  0.91185100  0.30298700  0.59836700  1
  C  1116  1  0.90181900  0.30541700  0.57633900  1
  C  1117  1  0.87355500  0.32176700  0.57006600  1
  C  1118  1  0.85456000  0.33574500  0.58683800  1
  C  1121  1  0.84580600  0.34931100  0.62622600  1
  C  1122  1  0.83342700  0.33635200  0.64579000  1
  C  1123  1  0.81599500  0.35280400  0.66209400  1
  C  1124  1  0.81129900  0.38267700  0.65809900  1
  C  1125  1  0.82364900  0.39626900  0.63915200  1
  C  1126  1  0.84142000  0.37946100  0.62373400  1
  C  1133  1  0.81903600  0.42563200  0.63591000  1
  C  1134  1  0.86420100  0.32322400  0.54804700  1
  C  1135  1  0.93932000  0.28604300  0.60437400  1
  C  1136  1  0.80305800  0.34053600  0.68142700  1
  C  1141  1  0.67026700  0.65310300  0.60840200  1
  C  1142  1  0.64130500  0.66925900  0.61394200  1
  C  1143  1  0.62160400  0.68327700  0.59802100  1
  C  1144  1  0.63133000  0.68050600  0.57584600  1
  C  1145  1  0.65978300  0.66442100  0.56925200  1
  C  1146  1  0.67914700  0.65094500  0.58583800  1
  C  1149  1  0.68801700  0.63739100  0.62514300  1
  C  1150  1  0.69984000  0.64997100  0.64483500  1
  C  1151  1  0.71741500  0.63333700  0.66076300  1
  C  1152  1  0.72283600  0.60364700  0.65625800  1
  C  1153  1  0.71109600  0.59029900  0.63715800  1
  C  1154  1  0.69314100  0.60739700  0.62219700  1
  C  1161  1  0.71652300  0.56110400  0.63289000  1
  C  1162  1  0.66881900  0.66271000  0.54707000  1
  C  1163  1  0.59402700  0.70005000  0.60426600  1
  C  1164  1  0.72995500  0.64537100  0.68014800  1
  C  1169  1  0.66528600  0.33506800  0.10978000  1
  C  1170  1  0.63685500  0.31887400  0.11551300  1
  C  1171  1  0.61746100  0.30449200  0.09980300  1
  C  1172  1  0.62694900  0.30710300  0.07758600  1
  C  1173  1  0.65473600  0.32327600  0.07073800  1
  C  1174  1  0.67382100  0.33701100  0.08715100  1
  C  1177  1  0.68322300  0.35053400  0.12641700  1
  C  1178  1  0.69543300  0.33759500  0.14600200  1
  C  1179  1  0.71324000  0.35372900  0.16189600  1
  C  1180  1  0.71857000  0.38332500  0.15742300  1
  C  1181  1  0.70654600  0.39698400  0.13845700  1
  C  1182  1  0.68828000  0.38048600  0.12354200  1
  C  1189  1  0.71172200  0.42618100  0.13485100  1
  C  1190  1  0.66326700  0.32481400  0.04845300  1
  C  1191  1  0.59036900  0.28766700  0.10621400  1
  C  1192  1  0.72557200  0.34145500  0.18139400  1
  C  1197  1  0.86523900  0.65010600  0.10746800  1
  C  1198  1  0.89396200  0.66559900  0.11330400  1
  C  1199  1  0.91391200  0.68020000  0.09775900  1
  C  1200  1  0.90468500  0.67845000  0.07554700  1
  C  1201  1  0.87668600  0.66287600  0.06860400  1
  C  1202  1  0.85699600  0.64901700  0.08487600  1
  C  1205  1  0.84670300  0.63444700  0.12393100  1
  C  1206  1  0.83478200  0.64688500  0.14389700  1
  C  1207  1  0.81636900  0.63054600  0.15957300  1
  C  1208  1  0.81012600  0.60127400  0.15450300  1
  C  1209  1  0.82175600  0.58800200  0.13509900  1
  C  1210  1  0.84062600  0.60479400  0.12042800  1
  C  1217  1  0.81557700  0.55910200  0.13045300  1
  C  1218  1  0.86843300  0.66192000  0.04637800  1
  C  1219  1  0.94114600  0.69649300  0.10442900  1
  C  1220  1  0.80428900  0.64243000  0.17940400  1
  C  1225  1  0.66784200  0.65088600  0.36524300  1
  C  1226  1  0.63818900  0.66575900  0.35975000  1
  C  1227  1  0.61771700  0.67959100  0.37560100  1
  C  1228  1  0.62738500  0.67766500  0.39772700  1
  C  1229  1  0.65655600  0.66276100  0.40428300  1
  C  1230  1  0.67661400  0.64947600  0.38771500  1
  C  1233  1  0.68613200  0.63542100  0.34848200  1
  C  1234  1  0.69807400  0.64835700  0.32880000  1
  C  1235  1  0.71547800  0.63194000  0.31246900  1
  C  1236  1  0.72042500  0.60210700  0.31651400  1
  C  1237  1  0.70842800  0.58855000  0.33557600  1
  C  1238  1  0.69086100  0.60534000  0.35109700  1
  C  1245  1  0.71301600  0.55919800  0.33879800  1
  C  1246  1  0.66543400  0.66169000  0.42641300  1
  C  1247  1  0.58886500  0.69430700  0.36913700  1
  C  1248  1  0.72806400  0.64421400  0.29304300  1
  C  1253  1  0.86161800  0.33166400  0.36603400  1
  C  1254  1  0.89071900  0.31580700  0.36031900  1
  C  1255  1  0.91071100  0.30173100  0.37607000  1
  C  1256  1  0.90098400  0.30414200  0.39827300  1
  C  1257  1  0.87260200  0.32017200  0.40508900  1
  C  1258  1  0.85298100  0.33366800  0.38864700  1
  C  1261  1  0.84362900  0.34734900  0.34938900  1
  C  1262  1  0.83190800  0.33482200  0.32964300  1
  C  1263  1  0.81428000  0.35146000  0.31374300  1
  C  1264  1  0.80871900  0.38111100  0.31832600  1
  C  1265  1  0.82034900  0.39440600  0.33748000  1
  C  1266  1  0.83833600  0.37730300  0.35241900  1
  C  1273  1  0.81483900  0.42357000  0.34181000  1
  C  1274  1  0.86415100  0.32200500  0.42737400  1
  C  1275  1  0.93851800  0.28523300  0.36967500  1
  C  1276  1  0.80188800  0.33948500  0.29428600  1
  C  1281  1  0.38844600  0.16203200  0.00930800  1
  C  1283  1  0.35676100  0.15905900  0.97635400  1
  C  1284  1  0.38582200  0.16149900  0.96341100  1
  C  1286  1  0.41766400  0.16437100  0.99647300  1
  C  1293  1  0.14436300  0.82250100  0.01128100  1
  C  1295  1  0.17559200  0.82429700  0.97770200  1
  C  1296  1  0.14626900  0.82228100  0.96531800  1
  C  1298  1  0.11488700  0.82057000  0.99901800  1
  C  1305  1  0.38389000  0.82191600  0.46451900  1
  C  1307  1  0.35337200  0.82570500  0.49829700  1
  C  1308  1  0.38282800  0.82236800  0.51045200  1
  C  1310  1  0.41350900  0.81868300  0.47655000  1
  C  1317  1  0.14772800  0.16372400  0.46377700  1
  C  1319  1  0.17940700  0.16131900  0.49678400  1
  C  1320  1  0.15024900  0.16403200  0.50968000  1
  C  1322  1  0.11841600  0.16634400  0.47656200  1
  C  1329  1  0.88875900  0.66241400  0.00918600  1
  C  1331  1  0.85763700  0.65843800  0.97606000  1
  C  1332  1  0.88668400  0.66189200  0.96324700  1
  C  1334  1  0.91798300  0.66576300  0.99649200  1
  C  1341  1  0.64298800  0.32341200  0.01140500  1
  C  1343  1  0.67376400  0.32643100  0.97770500  1
  C  1344  1  0.64447900  0.32329300  0.96542600  1
  C  1346  1  0.61354000  0.32038000  0.99925400  1
  C  1353  1  0.88458200  0.32141600  0.46436900  1
  C  1355  1  0.85380300  0.32614500  0.49800000  1
  C  1356  1  0.88299000  0.32213100  0.51032500  1
  C  1358  1  0.91395000  0.31753700  0.47657200  1
  C  1365  1  0.64607000  0.66262000  0.46385800  1
  C  1367  1  0.67804100  0.65964500  0.49673200  1
  C  1368  1  0.64907800  0.66283200  0.50976000  1
  C  1370  1  0.61694500  0.66568000  0.47678200  1
  C  1377  1  0.25249500  0.96611700  0.83747700  1
  C  1379  1  0.30075900  0.99570400  0.83515400  1
  C  1380  1  0.28099600  0.02085900  0.83748500  1
  C  1382  1  0.23237600  0.99127600  0.83958600  1
  C  1389  1  0.25292000  0.02059600  0.63859400  1
  C  1391  1  0.30064900  0.98945700  0.64046000  1
  C  1392  1  0.28048100  0.96504200  0.63807000  1
  C  1394  1  0.23239700  0.99617700  0.63640900  1
  C  1401  1  0.28049000  0.01845400  0.13672900  1
  C  1403  1  0.23228100  0.98876600  0.13853300  1
  C  1404  1  0.25219500  0.96365400  0.13651400  1
  C  1406  1  0.30075300  0.99333900  0.13493400  1
  C  1413  1  0.28055100  0.96499200  0.33547700  1
  C  1415  1  0.23264300  0.99601800  0.33437200  1
  C  1416  1  0.25284300  0.02050300  0.33618600  1
  C  1418  1  0.30109200  0.98948400  0.33707400  1
  C  1425  1  0.75177500  0.46639400  0.83740700  1
  C  1427  1  0.80018600  0.49583000  0.83551400  1
  C  1428  1  0.78045200  0.52104900  0.83751500  1
  C  1430  1  0.73168600  0.49161500  0.83917800  1
  C  1437  1  0.75178400  0.52001000  0.63898900  1
  C  1439  1  0.79987700  0.48921500  0.64034900  1
  C  1440  1  0.77988000  0.46462300  0.63839600  1
  C  1442  1  0.73143800  0.49541300  0.63724300  1
  C  1449  1  0.77990200  0.51886700  0.13699300  1
  C  1451  1  0.73150000  0.48941600  0.13910100  1
  C  1452  1  0.75120000  0.46420800  0.13690000  1
  C  1454  1  0.79994900  0.49364600  0.13501300  1
  C  1461  1  0.77985400  0.46473200  0.33552600  1
  C  1463  1  0.73190000  0.49565300  0.33402500  1
  C  1464  1  0.75198200  0.52016800  0.33613600  1
  C  1466  1  0.80028200  0.48925400  0.33742000  1
  C  1473  1  0.54412300  0.25902400  0.87981700  1
  C  1475  1  0.51529700  0.21907900  0.89569300  1
  C  1476  1  0.48975900  0.22166400  0.88027900  1
  C  1478  1  0.51821000  0.26214200  0.86440900  1
  C  1485  1  0.99098400  0.72151100  0.88128500  1
  C  1487  1  0.02634560  0.75438900  0.86210300  1
  C  1488  1  0.04625960  0.75772800  0.88077100  1
  C  1490  1  0.01077060  0.72477100  0.90002900  1
  C  1497  1  0.54244800  0.72136300  0.59264900  1
  C  1499  1  0.50889300  0.75723800  0.61079200  1
  C  1500  1  0.48544600  0.75657600  0.59380600  1
  C  1502  1  0.51908200  0.72053900  0.57560900  1
  C  1509  1  0.99041000  0.26395300  0.59180600  1
  C  1511  1  0.02590660  0.23121000  0.61128300  1
  C  1512  1  0.04751660  0.22891900  0.59306700  1
  C  1514  1  0.01191460  0.26174500  0.57351100  1
  C  1521  1  0.99011400  0.72185100  0.09231800  1
  C  1523  1  0.02546760  0.75275900  0.11289600  1
  C  1524  1  0.04554760  0.75770100  0.09428000  1
  C  1526  1  0.01005560  0.72675300  0.07361200  1
  C  1533  1  0.54120400  0.26348100  0.09379900  1
  C  1535  1  0.50661800  0.22963900  0.11258900  1
  C  1536  1  0.48567100  0.22762100  0.09430300  1
  C  1538  1  0.52032800  0.26160600  0.07545400  1
  C  1545  1  0.98935600  0.26308000  0.38209500  1
  C  1547  1  0.02544160  0.23045500  0.36257900  1
  C  1548  1  0.04633660  0.22790500  0.38087600  1
  C  1550  1  0.01009560  0.26059100  0.40048700  1
  C  1557  1  0.54411300  0.72634000  0.38015000  1
  C  1559  1  0.51431700  0.76649200  0.39572500  1
  C  1560  1  0.48817600  0.76283700  0.38095600  1
  C  1562  1  0.51756700  0.72205000  0.36548800  1
  C  1569  1  0.28088700  0.13047700  0.75779900  1
  C  1571  1  0.26244600  0.15775200  0.72670800  1
  C  1572  1  0.25246600  0.13232700  0.71604000  1
  C  1574  1  0.27090400  0.10497500  0.74718700  1
  C  1581  1  0.25357400  0.85619900  0.75987400  1
  C  1583  1  0.27048100  0.82896500  0.72820200  1
  C  1584  1  0.28208600  0.85417200  0.71785600  1
  C  1586  1  0.26519600  0.88147700  0.74957800  1
  C  1593  1  0.25160300  0.85449600  0.21628300  1
  C  1595  1  0.26879400  0.82741400  0.24778200  1
  C  1596  1  0.27987900  0.85273300  0.25809400  1
  C  1598  1  0.26268900  0.87989300  0.22654300  1
  C  1605  1  0.27930600  0.12864100  0.21454300  1
  C  1607  1  0.26201500  0.15616300  0.24598900  1
  C  1608  1  0.25092500  0.13096600  0.25659300  1
  C  1610  1  0.26820100  0.10337000  0.22509800  1
  C  1617  1  0.78059300  0.63040800  0.75797500  1
  C  1619  1  0.76295800  0.65752400  0.72660200  1
  C  1620  1  0.75199500  0.63218200  0.71626400  1
  C  1622  1  0.76962700  0.60498800  0.74769100  1
  C  1629  1  0.75228800  0.35614300  0.75981700  1
  C  1631  1  0.76960400  0.32866400  0.72834300  1
  C  1632  1  0.78093600  0.35384200  0.71782300  1
  C  1634  1  0.76362000  0.38139400  0.74933800  1
  C  1641  1  0.75098800  0.35467900  0.21653300  1
  C  1643  1  0.76926400  0.32741200  0.24767700  1
  C  1644  1  0.77953600  0.35280300  0.25826500  1
  C  1646  1  0.76125500  0.38014700  0.22706800  1
  C  1653  1  0.77833000  0.62903600  0.21451000  1
  C  1655  1  0.76120800  0.65629400  0.24613700  1
  C  1656  1  0.74984000  0.63105600  0.25655900  1
  C  1658  1  0.76693300  0.60373000  0.22488100  1
  C  1665  1  0.63908800  0.15025900  0.86472900  1
  C  1666  1  0.66721000  0.16699600  0.85925300  1
  C  1667  1  0.68606200  0.18149300  0.87518800  1
  C  1668  1  0.67636900  0.17859800  0.89733200  1
  C  1669  1  0.64876400  0.16199800  0.90388200  1
  C  1670  1  0.63023300  0.14806600  0.88728800  1
  C  1673  1  0.62155800  0.13470800  0.84794400  1
  C  1674  1  0.60925400  0.14765500  0.82838900  1
  C  1675  1  0.59158400  0.13147400  0.81245500  1
  C  1676  1  0.58642900  0.10183700  0.81687300  1
  C  1677  1  0.59855200  0.08817200  0.83580600  1
  C  1678  1  0.61674600  0.10470600  0.85073700  1
  C  1685  1  0.59347900  0.05895800  0.83938900  1
  C  1686  1  0.63954500  0.16046400  0.92602800  1
  C  1687  1  0.71237600  0.19928900  0.86906500  1
  C  1688  1  0.57916500  0.14374900  0.79298800  1
  C  1693  1  0.44009200  0.83482800  0.86687700  1
  C  1694  1  0.41055600  0.82046400  0.86116100  1
  C  1695  1  0.39043300  0.80608300  0.87673800  1
  C  1696  1  0.40020500  0.80711300  0.89888100  1
  C  1697  1  0.42921700  0.82141100  0.90564300  1
  C  1698  1  0.44906400  0.83501900  0.88933900  1
  C  1701  1  0.45866200  0.85051700  0.85049200  1
  C  1702  1  0.47021400  0.83820100  0.83041000  1
  C  1703  1  0.48869100  0.85456100  0.81479300  1
  C  1704  1  0.49521700  0.88374600  0.82000000  1
  C  1705  1  0.48389600  0.89690000  0.83953000  1
  C  1706  1  0.46511500  0.88005200  0.85421300  1
  C  1713  1  0.49023800  0.92574800  0.84427300  1
  C  1714  1  0.43841200  0.82144500  0.92769800  1
  C  1715  1  0.36176900  0.79169800  0.87013100  1
  C  1716  1  0.50054100  0.84276000  0.79488500  1
  C  1721  1  0.63713200  0.83404400  0.60930200  1
  C  1722  1  0.66710200  0.81945100  0.61449800  1
  C  1723  1  0.68719500  0.80568200  0.59841900  1
  C  1724  1  0.67683500  0.80730700  0.57642000  1
  C  1725  1  0.64728500  0.82188600  0.57020800  1
  C  1726  1  0.62762500  0.83517900  0.58696400  1
  C  1729  1  0.61916500  0.84962800  0.62611500  1
  C  1730  1  0.60713300  0.83673200  0.64577200  1
  C  1731  1  0.58966100  0.85321000  0.66203000  1
  C  1732  1  0.58476500  0.88304500  0.65794400  1
  C  1733  1  0.59689500  0.89655200  0.63889900  1
  C  1734  1  0.61451300  0.87970800  0.62343800  1
  C  1741  1  0.59238600  0.92590400  0.63563000  1
  C  1742  1  0.63759200  0.82271100  0.54824800  1
  C  1743  1  0.71675600  0.79175100  0.60438700  1
  C  1744  1  0.57694100  0.84096800  0.68141600  1
  C  1749  1  0.44390700  0.15367400  0.60824500  1
  C  1750  1  0.41381000  0.16809500  0.61383300  1
  C  1751  1  0.39346200  0.18166500  0.59802500  1
  C  1752  1  0.40366400  0.17987900  0.57586700  1
  C  1753  1  0.43328800  0.16549300  0.56923200  1
  C  1754  1  0.45328300  0.15258500  0.58574200  1
  C  1757  1  0.46203700  0.13802400  0.62479900  1
  C  1758  1  0.47330600  0.15043700  0.64468400  1
  C  1759  1  0.49106500  0.13379400  0.66051100  1
  C  1760  1  0.49704500  0.10424200  0.65575100  1
  C  1761  1  0.48578700  0.09105000  0.63645200  1
  C  1762  1  0.46783500  0.10818900  0.62151800  1
  C  1769  1  0.49152700  0.06194500  0.63198000  1
  C  1770  1  0.44262300  0.16450500  0.54708000  1
  C  1771  1  0.36396200  0.19577000  0.60437400  1
  C  1772  1  0.50313800  0.14570300  0.68007300  1
  C  1777  1  0.43908600  0.83445300  0.10958300  1
  C  1778  1  0.40984300  0.81941800  0.11535000  1
  C  1779  1  0.39003300  0.80528200  0.09972300  1
  C  1780  1  0.39988800  0.80719100  0.07752100  1
  C  1781  1  0.42854900  0.82220200  0.07065600  1
  C  1782  1  0.44804800  0.83560600  0.08700600  1
  C  1785  1  0.45722100  0.84991500  0.12609200  1
  C  1786  1  0.46903600  0.83713300  0.14582900  1
  C  1787  1  0.48688900  0.85331600  0.16166800  1
  C  1788  1  0.49252500  0.88282300  0.15701500  1
  C  1789  1  0.48084500  0.89632900  0.13788900  1
  C  1790  1  0.46266900  0.87975900  0.12297300  1
  C  1797  1  0.48609500  0.92548400  0.13416400  1
  C  1798  1  0.43739200  0.82317200  0.04840900  1
  C  1799  1  0.36154900  0.79026800  0.10623200  1
  C  1800  1  0.49886200  0.84118600  0.18131100  1
  C  1805  1  0.63872700  0.14979100  0.10750400  1
  C  1806  1  0.66816300  0.16419700  0.11336400  1
  C  1807  1  0.68846300  0.17849500  0.09786300  1
  C  1808  1  0.67906800  0.17728300  0.07566300  1
  C  1809  1  0.65021000  0.16287500  0.06874600  1
  C  1810  1  0.63010600  0.14939700  0.08497800  1
  C  1813  1  0.62004900  0.13414100  0.12384400  1
  C  1814  1  0.60837100  0.14649700  0.14388100  1
  C  1815  1  0.58994900  0.13012100  0.15951400  1
  C  1816  1  0.58358500  0.10088900  0.15436600  1
  C  1817  1  0.59504900  0.08771300  0.13487900  1
  C  1818  1  0.61378700  0.10456600  0.12018200  1
  C  1825  1  0.58891500  0.05882800  0.13018200  1
  C  1826  1  0.64165600  0.16240000  0.04657600  1
  C  1827  1  0.71710700  0.19278600  0.10454500  1
  C  1828  1  0.57800400  0.14196400  0.17937800  1
  C  1833  1  0.44211200  0.15161400  0.36519100  1
  C  1834  1  0.41236300  0.16642100  0.35977800  1
  C  1835  1  0.39207700  0.18032300  0.37569000  1
  C  1836  1  0.40205000  0.17857800  0.39776300  1
  C  1837  1  0.43131300  0.16376000  0.40423100  1
  C  1838  1  0.45118200  0.15038200  0.38761700  1
  C  1841  1  0.46024500  0.13599300  0.34844500  1
  C  1842  1  0.47219000  0.14880200  0.32872100  1
  C  1843  1  0.48959100  0.13227300  0.31246000  1
  C  1844  1  0.49453800  0.10246400  0.31661500  1
  C  1845  1  0.48254500  0.08902200  0.33572600  1
  C  1846  1  0.46497200  0.10592600  0.35117700  1
  C  1853  1  0.48713000  0.05967500  0.33904900  1
  C  1854  1  0.44032800  0.16277600  0.42633300  1
  C  1855  1  0.36288800  0.19471600  0.36947100  1
  C  1856  1  0.50216000  0.14441900  0.29298700  1
  C  1861  1  0.63404100  0.83155100  0.36614800  1
  C  1862  1  0.66264400  0.81493900  0.36055400  1
  C  1863  1  0.68223200  0.80082700  0.37647000  1
  C  1864  1  0.67283800  0.80389600  0.39865500  1
  C  1865  1  0.64479700  0.82047200  0.40531500  1
  C  1866  1  0.62546700  0.83404600  0.38875400  1
  C  1869  1  0.61640700  0.84732100  0.34938100  1
  C  1870  1  0.60449700  0.83477800  0.32969200  1
  C  1871  1  0.58717000  0.85150200  0.31369900  1
  C  1872  1  0.58204100  0.88124100  0.31814300  1
  C  1873  1  0.59386000  0.89454300  0.33723900  1
  C  1874  1  0.61160700  0.87736500  0.35224900  1
  C  1881  1  0.58871100  0.92377300  0.34145200  1
  C  1882  1  0.63631900  0.82258300  0.42756700  1
  C  1883  1  0.70917400  0.78334900  0.37029000  1
  C  1884  1  0.57460200  0.83951800  0.29430200  1
  C  1889  1  0.13978800  0.65006000  0.86458900  1
  C  1890  1  0.16845800  0.66600200  0.85898400  1
  C  1891  1  0.18776600  0.68036100  0.87477100  1
  C  1892  1  0.17784500  0.67804100  0.89693800  1
  C  1893  1  0.14978700  0.66211400  0.90363900  1
  C  1894  1  0.13086900  0.64835400  0.88715400  1
  C  1897  1  0.12192600  0.63458400  0.84792900  1
  C  1898  1  0.10981600  0.64750500  0.82831500  1
  C  1899  1  0.09191210  0.63139100  0.81245700  1
  C  1900  1  0.08641410  0.60183400  0.81699300  1
  C  1901  1  0.09834910  0.58819300  0.83599100  1
  C  1902  1  0.11669700  0.60467100  0.85087500  1
  C  1909  1  0.09303210  0.55903200  0.83966100  1
  C  1910  1  0.14061000  0.66087200  0.92581900  1
  C  1911  1  0.21522700  0.69683500  0.86846500  1
  C  1912  1  0.07966910  0.64364300  0.79292700  1
  C  1917  1  0.93888100  0.33555600  0.86697200  1
  C  1918  1  0.90935100  0.32129200  0.86115900  1
  C  1919  1  0.88896700  0.30703900  0.87665600  1
  C  1920  1  0.89844000  0.30811700  0.89885300  1
  C  1921  1  0.92744500  0.32236100  0.90572500  1
  C  1922  1  0.94755200  0.33584300  0.88948300  1
  C  1925  1  0.95765200  0.35106800  0.85058700  1
  C  1926  1  0.96914900  0.33863000  0.83052900  1
  C  1927  1  0.98763000  0.35487600  0.81484000  1
  C  1928  1  0.99419900  0.38408400  0.81994800  1
  C  1929  1  0.98292600  0.39734500  0.83945000  1
  C  1930  1  0.96416100  0.38060900  0.85421200  1
  C  1937  1  0.98927600  0.42620900  0.84409500  1
  C  1938  1  0.93649500  0.32243100  0.92781000  1
  C  1939  1  0.86043000  0.29270300  0.86978500  1
  C  1940  1  0.99945200  0.34294300  0.79496500  1
  C  1945  1  0.13659700  0.33366500  0.60925800  1
  C  1946  1  0.16543500  0.31738600  0.61446600  1
  C  1947  1  0.18493000  0.30298700  0.59836700  1
  C  1948  1  0.17489800  0.30541700  0.57633900  1
  C  1949  1  0.14663400  0.32176700  0.57006600  1
  C  1950  1  0.12763900  0.33574500  0.58683800  1
  C  1953  1  0.11888500  0.34931100  0.62622600  1
  C  1954  1  0.10650600  0.33635200  0.64579000  1
  C  1955  1  0.08907410  0.35280400  0.66209400  1
  C  1956  1  0.08437810  0.38267700  0.65809900  1
  C  1957  1  0.09672810  0.39626900  0.63915200  1
  C  1958  1  0.11449900  0.37946100  0.62373400  1
  C  1965  1  0.09211510  0.42563200  0.63591000  1
  C  1966  1  0.13728000  0.32322400  0.54804700  1
  C  1967  1  0.21239900  0.28604300  0.60437400  1
  C  1968  1  0.07613710  0.34053600  0.68142700  1
  C  1973  1  0.94334600  0.65310300  0.60840200  1
  C  1974  1  0.91438400  0.66925900  0.61394200  1
  C  1975  1  0.89468300  0.68327700  0.59802100  1
  C  1976  1  0.90440900  0.68050600  0.57584600  1
  C  1977  1  0.93286200  0.66442100  0.56925200  1
  C  1978  1  0.95222600  0.65094500  0.58583800  1
  C  1981  1  0.96109600  0.63739100  0.62514300  1
  C  1982  1  0.97291900  0.64997100  0.64483500  1
  C  1983  1  0.99049400  0.63333700  0.66076300  1
  C  1984  1  0.99591500  0.60364700  0.65625800  1
  C  1985  1  0.98417500  0.59029900  0.63715800  1
  C  1986  1  0.96622000  0.60739700  0.62219700  1
  C  1993  1  0.98960200  0.56110400  0.63289000  1
  C  1994  1  0.94189800  0.66271000  0.54707000  1
  C  1995  1  0.86710600  0.70005000  0.60426600  1
  C  1996  1  0.00303414  0.64537100  0.68014800  1
  C  2001  1  0.93836500  0.33506800  0.10978000  1
  C  2002  1  0.90993400  0.31887400  0.11551300  1
  C  2003  1  0.89054000  0.30449200  0.09980300  1
  C  2004  1  0.90002800  0.30710300  0.07758600  1
  C  2005  1  0.92781500  0.32327600  0.07073800  1
  C  2006  1  0.94690000  0.33701100  0.08715100  1
  C  2009  1  0.95630200  0.35053400  0.12641700  1
  C  2010  1  0.96851200  0.33759500  0.14600200  1
  C  2011  1  0.98631900  0.35372900  0.16189600  1
  C  2012  1  0.99164900  0.38332500  0.15742300  1
  C  2013  1  0.97962500  0.39698400  0.13845700  1
  C  2014  1  0.96135900  0.38048600  0.12354200  1
  C  2021  1  0.98480100  0.42618100  0.13485100  1
  C  2022  1  0.93634600  0.32481400  0.04845300  1
  C  2023  1  0.86344800  0.28766700  0.10621400  1
  C  2024  1  0.99865100  0.34145500  0.18139400  1
  C  2029  1  0.13831800  0.65010600  0.10746800  1
  C  2030  1  0.16704100  0.66559900  0.11330400  1
  C  2031  1  0.18699100  0.68020000  0.09775900  1
  C  2032  1  0.17776400  0.67845000  0.07554700  1
  C  2033  1  0.14976500  0.66287600  0.06860400  1
  C  2034  1  0.13007500  0.64901700  0.08487600  1
  C  2037  1  0.11978200  0.63444700  0.12393100  1
  C  2038  1  0.10786100  0.64688500  0.14389700  1
  C  2039  1  0.08944810  0.63054600  0.15957300  1
  C  2040  1  0.08320510  0.60127400  0.15450300  1
  C  2041  1  0.09483510  0.58800200  0.13509900  1
  C  2042  1  0.11370500  0.60479400  0.12042800  1
  C  2049  1  0.08865610  0.55910200  0.13045300  1
  C  2050  1  0.14151200  0.66192000  0.04637800  1
  C  2051  1  0.21422500  0.69649300  0.10442900  1
  C  2052  1  0.07736810  0.64243000  0.17940400  1
  C  2057  1  0.94092100  0.65088600  0.36524300  1
  C  2058  1  0.91126800  0.66575900  0.35975000  1
  C  2059  1  0.89079600  0.67959100  0.37560100  1
  C  2060  1  0.90046400  0.67766500  0.39772700  1
  C  2061  1  0.92963500  0.66276100  0.40428300  1
  C  2062  1  0.94969300  0.64947600  0.38771500  1
  C  2065  1  0.95921100  0.63542100  0.34848200  1
  C  2066  1  0.97115300  0.64835700  0.32880000  1
  C  2067  1  0.98855700  0.63194000  0.31246900  1
  C  2068  1  0.99350400  0.60210700  0.31651400  1
  C  2069  1  0.98150700  0.58855000  0.33557600  1
  C  2070  1  0.96394000  0.60534000  0.35109700  1
  C  2077  1  0.98609500  0.55919800  0.33879800  1
  C  2078  1  0.93851300  0.66169000  0.42641300  1
  C  2079  1  0.86194400  0.69430700  0.36913700  1
  C  2080  1  0.00114314  0.64421400  0.29304300  1
  C  2085  1  0.13469700  0.33166400  0.36603400  1
  C  2086  1  0.16379800  0.31580700  0.36031900  1
  C  2087  1  0.18379000  0.30173100  0.37607000  1
  C  2088  1  0.17406300  0.30414200  0.39827300  1
  C  2089  1  0.14568100  0.32017200  0.40508900  1
  C  2090  1  0.12606000  0.33366800  0.38864700  1
  C  2093  1  0.11670800  0.34734900  0.34938900  1
  C  2094  1  0.10498700  0.33482200  0.32964300  1
  C  2095  1  0.08735910  0.35146000  0.31374300  1
  C  2096  1  0.08179810  0.38111100  0.31832600  1
  C  2097  1  0.09342810  0.39440600  0.33748000  1
  C  2098  1  0.11141500  0.37730300  0.35241900  1
  C  2105  1  0.08791810  0.42357000  0.34181000  1
  C  2106  1  0.13723000  0.32200500  0.42737400  1
  C  2107  1  0.21159700  0.28523300  0.36967500  1
  C  2108  1  0.07496710  0.33948500  0.29428600  1
  C  2113  1  0.66152500  0.16203200  0.00930800  1
  C  2115  1  0.62984000  0.15905900  0.97635400  1
  C  2116  1  0.65890100  0.16149900  0.96341100  1
  C  2118  1  0.69074300  0.16437100  0.99647300  1
  C  2125  1  0.41744200  0.82250100  0.01128100  1
  C  2127  1  0.44867100  0.82429700  0.97770200  1
  C  2128  1  0.41934800  0.82228100  0.96531800  1
  C  2130  1  0.38796600  0.82057000  0.99901800  1
  C  2137  1  0.65696900  0.82191600  0.46451900  1
  C  2139  1  0.62645100  0.82570500  0.49829700  1
  C  2140  1  0.65590700  0.82236800  0.51045200  1
  C  2142  1  0.68658800  0.81868300  0.47655000  1
  C  2149  1  0.42080700  0.16372400  0.46377700  1
  C  2151  1  0.45248600  0.16131900  0.49678400  1
  C  2152  1  0.42332800  0.16403200  0.50968000  1
  C  2154  1  0.39149500  0.16634400  0.47656200  1
  C  2161  1  0.16183800  0.66241400  0.00918600  1
  C  2163  1  0.13071600  0.65843800  0.97606000  1
  C  2164  1  0.15976300  0.66189200  0.96324700  1
  C  2166  1  0.19106200  0.66576300  0.99649200  1
  C  2173  1  0.91606700  0.32341200  0.01140500  1
  C  2175  1  0.94684300  0.32643100  0.97770500  1
  C  2176  1  0.91755800  0.32329300  0.96542600  1
  C  2178  1  0.88661900  0.32038000  0.99925400  1
  C  2185  1  0.15766100  0.32141600  0.46436900  1
  C  2187  1  0.12688200  0.32614500  0.49800000  1
  C  2188  1  0.15606900  0.32213100  0.51032500  1
  C  2190  1  0.18702900  0.31753700  0.47657200  1
  C  2197  1  0.91914900  0.66262000  0.46385800  1
  C  2199  1  0.95112000  0.65964500  0.49673200  1
  C  2200  1  0.92215700  0.66283200  0.50976000  1
  C  2202  1  0.89002400  0.66568000  0.47678200  1
  C  2209  1  0.52557400  0.96611700  0.83747700  1
  C  2211  1  0.57383800  0.99570400  0.83515400  1
  C  2212  1  0.55407500  0.02085900  0.83748500  1
  C  2214  1  0.50545500  0.99127600  0.83958600  1
  C  2221  1  0.52599900  0.02059600  0.63859400  1
  C  2223  1  0.57372800  0.98945700  0.64046000  1
  C  2224  1  0.55356000  0.96504200  0.63807000  1
  C  2226  1  0.50547600  0.99617700  0.63640900  1
  C  2233  1  0.55356900  0.01845400  0.13672900  1
  C  2235  1  0.50536000  0.98876600  0.13853300  1
  C  2236  1  0.52527400  0.96365400  0.13651400  1
  C  2238  1  0.57383200  0.99333900  0.13493400  1
  C  2245  1  0.55363000  0.96499200  0.33547700  1
  C  2247  1  0.50572200  0.99601800  0.33437200  1
  C  2248  1  0.52592200  0.02050300  0.33618600  1
  C  2250  1  0.57417100  0.98948400  0.33707400  1
  C  2257  1  0.02485410  0.46639400  0.83740700  1
  C  2259  1  0.07326510  0.49583000  0.83551400  1
  C  2260  1  0.05353110  0.52104900  0.83751500  1
  C  2262  1  0.00476514  0.49161500  0.83917800  1
  C  2269  1  0.02486310  0.52001000  0.63898900  1
  C  2271  1  0.07295610  0.48921500  0.64034900  1
  C  2272  1  0.05295910  0.46462300  0.63839600  1
  C  2274  1  0.00451714  0.49541300  0.63724300  1
  C  2281  1  0.05298110  0.51886700  0.13699300  1
  C  2283  1  0.00457914  0.48941600  0.13910100  1
  C  2284  1  0.02427910  0.46420800  0.13690000  1
  C  2286  1  0.07302810  0.49364600  0.13501300  1
  C  2293  1  0.05293310  0.46473200  0.33552600  1
  C  2295  1  0.00497914  0.49565300  0.33402500  1
  C  2296  1  0.02506110  0.52016800  0.33613600  1
  C  2298  1  0.07336110  0.48925400  0.33742000  1
  C  2305  1  0.81720200  0.25902400  0.87981700  1
  C  2307  1  0.78837600  0.21907900  0.89569300  1
  C  2308  1  0.76283800  0.22166400  0.88027900  1
  C  2310  1  0.79128900  0.26214200  0.86440900  1
  C  2317  1  0.26406300  0.72151100  0.88128500  1
  C  2319  1  0.29942500  0.75438900  0.86210300  1
  C  2320  1  0.31933900  0.75772800  0.88077100  1
  C  2322  1  0.28385000  0.72477100  0.90002900  1
  C  2329  1  0.81552700  0.72136300  0.59264900  1
  C  2331  1  0.78197200  0.75723800  0.61079200  1
  C  2332  1  0.75852500  0.75657600  0.59380600  1
  C  2334  1  0.79216100  0.72053900  0.57560900  1
  C  2341  1  0.26348900  0.26395300  0.59180600  1
  C  2343  1  0.29898600  0.23121000  0.61128300  1
  C  2344  1  0.32059600  0.22891900  0.59306700  1
  C  2346  1  0.28499400  0.26174500  0.57351100  1
  C  2353  1  0.26319300  0.72185100  0.09231800  1
  C  2355  1  0.29854700  0.75275900  0.11289600  1
  C  2356  1  0.31862700  0.75770100  0.09428000  1
  C  2358  1  0.28313500  0.72675300  0.07361200  1
  C  2365  1  0.81428300  0.26348100  0.09379900  1
  C  2367  1  0.77969700  0.22963900  0.11258900  1
  C  2368  1  0.75875000  0.22762100  0.09430300  1
  C  2370  1  0.79340700  0.26160600  0.07545400  1
  C  2377  1  0.26243500  0.26308000  0.38209500  1
  C  2379  1  0.29852100  0.23045500  0.36257900  1
  C  2380  1  0.31941600  0.22790500  0.38087600  1
  C  2382  1  0.28317500  0.26059100  0.40048700  1
  C  2389  1  0.81719200  0.72634000  0.38015000  1
  C  2391  1  0.78739600  0.76649200  0.39572500  1
  C  2392  1  0.76125500  0.76283700  0.38095600  1
  C  2394  1  0.79064600  0.72205000  0.36548800  1
  C  2401  1  0.55396600  0.13047700  0.75779900  1
  C  2403  1  0.53552500  0.15775200  0.72670800  1
  C  2404  1  0.52554500  0.13232700  0.71604000  1
  C  2406  1  0.54398300  0.10497500  0.74718700  1
  C  2413  1  0.52665300  0.85619900  0.75987400  1
  C  2415  1  0.54356000  0.82896500  0.72820200  1
  C  2416  1  0.55516500  0.85417200  0.71785600  1
  C  2418  1  0.53827500  0.88147700  0.74957800  1
  C  2425  1  0.52468200  0.85449600  0.21628300  1
  C  2427  1  0.54187300  0.82741400  0.24778200  1
  C  2428  1  0.55295800  0.85273300  0.25809400  1
  C  2430  1  0.53576800  0.87989300  0.22654300  1
  C  2437  1  0.55238500  0.12864100  0.21454300  1
  C  2439  1  0.53509400  0.15616300  0.24598900  1
  C  2440  1  0.52400400  0.13096600  0.25659300  1
  C  2442  1  0.54128000  0.10337000  0.22509800  1
  C  2449  1  0.05367210  0.63040800  0.75797500  1
  C  2451  1  0.03603710  0.65752400  0.72660200  1
  C  2452  1  0.02507410  0.63218200  0.71626400  1
  C  2454  1  0.04270610  0.60498800  0.74769100  1
  C  2461  1  0.02536710  0.35614300  0.75981700  1
  C  2463  1  0.04268310  0.32866400  0.72834300  1
  C  2464  1  0.05401510  0.35384200  0.71782300  1
  C  2466  1  0.03669910  0.38139400  0.74933800  1
  C  2473  1  0.02406710  0.35467900  0.21653300  1
  C  2475  1  0.04234310  0.32741200  0.24767700  1
  C  2476  1  0.05261510  0.35280300  0.25826500  1
  C  2478  1  0.03433410  0.38014700  0.22706800  1
  C  2485  1  0.05140910  0.62903600  0.21451000  1
  C  2487  1  0.03428710  0.65629400  0.24613700  1
  C  2488  1  0.02291910  0.63105600  0.25655900  1
  C  2490  1  0.04001210  0.60373000  0.22488100  1
  N  450  1  0.08610100  0.15945800  0.99850900  1
  N  453  1  0.14179900  0.16406900  0.97428100  1
  N  456  1  0.17579200  0.16721800  0.00640300  1
  N  459  1  0.11736500  0.16256500  0.03107400  1
  N  460  1  0.11456300  0.16211100  0.94163200  1
  N  462  1  0.90044900  0.82427900  0.99990800  1
  N  465  1  0.84423600  0.82056700  0.97677400  1
  N  468  1  0.81067000  0.81854200  0.00956000  1
  N  471  1  0.86956700  0.82210200  0.03307800  1
  N  472  1  0.87095200  0.82190600  0.94355500  1
  N  474  1  0.08193600  0.82527300  0.47608400  1
  N  477  1  0.13840700  0.81904600  0.49880400  1
  N  480  1  0.17126200  0.81490600  0.46578500  1
  N  483  1  0.11206300  0.82090600  0.44274200  1
  N  484  1  0.11234600  0.82189000  0.53217700  1
  N  486  1  0.90396400  0.16132500  0.47461900  1
  N  489  1  0.84806600  0.16639000  0.49875500  1
  N  492  1  0.81406600  0.16906800  0.46658100  1
  N  495  1  0.87263200  0.16410100  0.44201700  1
  N  496  1  0.87521000  0.16476800  0.53145800  1
  N  498  1  0.58670300  0.65887100  0.99822800  1
  N  501  1  0.64239100  0.66538500  0.97427800  1
  N  504  1  0.67582800  0.66965700  0.00659400  1
  N  507  1  0.61734200  0.66303000  0.03097300  1
  N  508  1  0.61560600  0.66242800  0.94145200  1
  N  510  1  0.39882900  0.32631800  0.99991600  1
  N  513  1  0.34268000  0.32049500  0.97699900  1
  N  516  1  0.30957400  0.31704900  0.00990700  1
  N  519  1  0.36846300  0.32286200  0.03320800  1
  N  520  1  0.36901800  0.32286800  0.94366000  1
  N  522  1  0.58262400  0.32556800  0.47579500  1
  N  525  1  0.63858600  0.31803500  0.49882000  1
  N  528  1  0.67169500  0.31287000  0.46598400  1
  N  531  1  0.61295000  0.32042500  0.44257700  1
  N  532  1  0.61216700  0.32148600  0.53207800  1
  N  534  1  0.40236200  0.65973000  0.47458000  1
  N  537  1  0.34683300  0.66569100  0.49896400  1
  N  540  1  0.31254800  0.66892200  0.46694600  1
  N  543  1  0.37081100  0.66307600  0.44209600  1
  N  544  1  0.37433900  0.66379900  0.53154400  1
  N  546  1  0.01268700  0.96966000  0.83501700  1
  N  549  1  0.97458700  0.01736400  0.83927100  1
  N  552  1  0.92444700  0.98978600  0.84093300  1
  N  555  1  0.96866100  0.93926700  0.83567400  1
  N  556  1  0.01885100  0.04764900  0.83588100  1
  N  558  1  0.01300100  0.01597600  0.64084800  1
  N  561  1  0.97418000  0.96960500  0.63645700  1
  N  564  1  0.92452200  0.99880100  0.63519100  1
  N  567  1  0.96964100  0.04777500  0.64048500  1
  N  568  1  0.01782400  0.93793200  0.63939000  1
  N  570  1  0.97409400  0.01484800  0.13878800  1
  N  573  1  0.01247000  0.96721500  0.13513300  1
  N  576  1  0.06254200  0.99490500  0.13400600  1
  N  579  1  0.01801200  0.04533400  0.13858700  1
  N  580  1  0.96823200  0.93685700  0.13809800  1
  N  582  1  0.97419300  0.96952600  0.33387800  1
  N  585  1  0.01306500  0.01602100  0.33715200  1
  N  588  1  0.06286500  0.98697400  0.33761700  1
  N  591  1  0.01761300  0.93778300  0.33364000  1
  N  592  1  0.96923200  0.04758800  0.33493000  1
  N  594  1  0.51203400  0.46982600  0.83531500  1
  N  597  1  0.47399100  0.51765900  0.83893100  1
  N  600  1  0.42372500  0.49021800  0.84013000  1
  N  603  1  0.46790400  0.43956400  0.83561200  1
  N  604  1  0.51844000  0.54779300  0.83591700  1
  N  606  1  0.51198100  0.51563300  0.64078300  1
  N  609  1  0.47348600  0.46894600  0.63723000  1
  N  612  1  0.42350400  0.49776200  0.63650200  1
  N  615  1  0.46835700  0.54716800  0.64081600  1
  N  616  1  0.51750400  0.43757900  0.63968200  1
  N  618  1  0.47350800  0.51541900  0.13928200  1
  N  621  1  0.51147700  0.46760500  0.13527900  1
  N  624  1  0.56173600  0.49501600  0.13382500  1
  N  627  1  0.51762100  0.54570300  0.13878800  1
  N  628  1  0.46709400  0.43744800  0.13847900  1
  N  630  1  0.47353100  0.46919700  0.33359100  1
  N  633  1  0.51218100  0.51575900  0.33743600  1
  N  636  1  0.56203900  0.48680900  0.33830700  1
  N  639  1  0.51705700  0.43757200  0.33368100  1
  N  640  1  0.46832600  0.54723200  0.33488300  1
  N  642  1  0.26797500  0.23764600  0.89483700  1
  N  645  1  0.21919000  0.24341200  0.86546500  1
  N  648  1  0.24490300  0.28464400  0.84901400  1
  N  651  1  0.29778100  0.27541000  0.88212000  1
  N  652  1  0.19032600  0.20477500  0.88202800  1
  N  654  1  0.72661400  0.73663100  0.86308100  1
  N  657  1  0.76427100  0.74264000  0.89882500  1
  N  660  1  0.73006500  0.70998300  0.91949800  1
  N  663  1  0.69147000  0.70460600  0.88233200  1
  N  664  1  0.79992600  0.77408500  0.88265500  1
  N  666  1  0.26325000  0.73990000  0.60949800  1
  N  669  1  0.21873800  0.73818200  0.57702500  1
  N  672  1  0.25086600  0.70206900  0.55757600  1
  N  675  1  0.29710100  0.70562800  0.59103200  1
  N  676  1  0.18494300  0.77264900  0.59219200  1
  N  678  1  0.72531500  0.24841300  0.60993200  1
  N  681  1  0.76625400  0.24435900  0.57505500  1
  N  684  1  0.73199000  0.27697700  0.55413900  1
  N  687  1  0.68998400  0.28021900  0.59052000  1
  N  688  1  0.80199800  0.21298300  0.59155000  1
  N  690  1  0.72565400  0.73524400  0.11119900  1
  N  693  1  0.76363500  0.74437200  0.07553700  1
  N  696  1  0.72938700  0.71385100  0.05347100  1
  N  699  1  0.69048600  0.70522600  0.09063900  1
  N  700  1  0.79921500  0.77415800  0.09303600  1
  N  702  1  0.26033500  0.24722100  0.11160600  1
  N  705  1  0.22059800  0.24381800  0.07663100  1
  N  708  1  0.25397100  0.27752600  0.05636400  1
  N  711  1  0.29511200  0.27966700  0.09257100  1
  N  712  1  0.18592800  0.21121200  0.09233900  1
  N  714  1  0.72487100  0.24772400  0.36390700  1
  N  717  1  0.76442800  0.24314700  0.39895900  1
  N  720  1  0.72935200  0.27548400  0.41997200  1
  N  723  1  0.68893700  0.27934000  0.38338900  1
  N  724  1  0.80067700  0.21185600  0.38241200  1
  N  726  1  0.26780500  0.74825400  0.39475000  1
  N  729  1  0.21775800  0.74043800  0.36668700  1
  N  732  1  0.24449000  0.69871000  0.35082000  1
  N  735  1  0.29837500  0.71022100  0.38222600  1
  N  736  1  0.18800500  0.77925900  0.38290800  1
  N  738  1  0.00307800  0.15589300  0.74698100  1
  N  741  1  0.98429500  0.10719100  0.72693800  1
  N  744  1  0.00185600  0.07782300  0.75724400  1
  N  747  1  0.02121400  0.12812000  0.77755300  1
  N  748  1  0.96662500  0.12980800  0.69614900  1
  N  750  1  0.98369100  0.83090900  0.74863200  1
  N  753  1  0.00561500  0.87919000  0.72916600  1
  N  756  1  0.98970900  0.90847100  0.76010100  1
  N  759  1  0.96714200  0.85860500  0.77978300  1
  N  760  1  0.02195400  0.85666000  0.69789600  1
  N  762  1  0.98211000  0.82922900  0.22747100  1
  N  765  1  0.00301000  0.87772800  0.24683400  1
  N  768  1  0.98676100  0.90689800  0.21610400  1
  N  771  1  0.96518900  0.85681100  0.19650300  1
  N  772  1  0.01961400  0.85531200  0.27796900  1
  N  774  1  0.00259300  0.15407300  0.22555100  1
  N  777  1  0.98165500  0.10580700  0.24551100  1
  N  780  1  0.99799100  0.07623800  0.21482100  1
  N  783  1  0.01949900  0.12610200  0.19461800  1
  N  784  1  0.96497300  0.12863400  0.27658700  1
  N  786  1  0.50365000  0.65570400  0.74686000  1
  N  789  1  0.48298100  0.60715900  0.72745000  1
  N  792  1  0.49967600  0.57795400  0.75805300  1
  N  795  1  0.52103100  0.62807600  0.77769800  1
  N  796  1  0.46600000  0.62959500  0.69642100  1
  N  798  1  0.48275500  0.33074200  0.74875600  1
  N  801  1  0.50413000  0.37896900  0.72895900  1
  N  804  1  0.48778600  0.40850300  0.75966300  1
  N  807  1  0.46588500  0.35868700  0.77973800  1
  N  808  1  0.52095800  0.35619800  0.69788600  1
  N  810  1  0.48242800  0.32928100  0.22741400  1
  N  813  1  0.50175600  0.37792000  0.24730400  1
  N  816  1  0.48436900  0.40728100  0.21694900  1
  N  819  1  0.46447900  0.35705100  0.19678200  1
  N  820  1  0.51935100  0.35531600  0.27812200  1
  N  822  1  0.50184000  0.65435000  0.22570300  1
  N  825  1  0.48035600  0.60601400  0.24529700  1
  N  828  1  0.49648700  0.57670300  0.21442500  1
  N  831  1  0.51866200  0.62661500  0.19460900  1
  N  832  1  0.46387800  0.62856200  0.27655000  1
  N  1282  1  0.35918100  0.15945800  0.99850900  1
  N  1285  1  0.41487900  0.16406900  0.97428100  1
  N  1288  1  0.44887200  0.16721800  0.00640300  1
  N  1291  1  0.39044500  0.16256500  0.03107400  1
  N  1292  1  0.38764300  0.16211100  0.94163200  1
  N  1294  1  0.17352900  0.82427900  0.99990800  1
  N  1297  1  0.11731600  0.82056700  0.97677400  1
  N  1300  1  0.08374960  0.81854200  0.00956000  1
  N  1303  1  0.14264700  0.82210200  0.03307800  1
  N  1304  1  0.14403200  0.82190600  0.94355500  1
  N  1306  1  0.35501600  0.82527300  0.47608400  1
  N  1309  1  0.41148700  0.81904600  0.49880400  1
  N  1312  1  0.44434200  0.81490600  0.46578500  1
  N  1315  1  0.38514300  0.82090600  0.44274200  1
  N  1316  1  0.38542600  0.82189000  0.53217700  1
  N  1318  1  0.17704400  0.16132500  0.47461900  1
  N  1321  1  0.12114600  0.16639000  0.49875500  1
  N  1324  1  0.08714560  0.16906800  0.46658100  1
  N  1327  1  0.14571200  0.16410100  0.44201700  1
  N  1328  1  0.14829000  0.16476800  0.53145800  1
  N  1330  1  0.85978300  0.65887100  0.99822800  1
  N  1333  1  0.91547100  0.66538500  0.97427800  1
  N  1336  1  0.94890800  0.66965700  0.00659400  1
  N  1339  1  0.89042200  0.66303000  0.03097300  1
  N  1340  1  0.88868600  0.66242800  0.94145200  1
  N  1342  1  0.67190900  0.32631800  0.99991600  1
  N  1345  1  0.61576000  0.32049500  0.97699900  1
  N  1348  1  0.58265400  0.31704900  0.00990700  1
  N  1351  1  0.64154300  0.32286200  0.03320800  1
  N  1352  1  0.64209800  0.32286800  0.94366000  1
  N  1354  1  0.85570400  0.32556800  0.47579500  1
  N  1357  1  0.91166600  0.31803500  0.49882000  1
  N  1360  1  0.94477500  0.31287000  0.46598400  1
  N  1363  1  0.88603000  0.32042500  0.44257700  1
  N  1364  1  0.88524700  0.32148600  0.53207800  1
  N  1366  1  0.67544200  0.65973000  0.47458000  1
  N  1369  1  0.61991300  0.66569100  0.49896400  1
  N  1372  1  0.58562800  0.66892200  0.46694600  1
  N  1375  1  0.64389100  0.66307600  0.44209600  1
  N  1376  1  0.64741900  0.66379900  0.53154400  1
  N  1378  1  0.28576700  0.96966000  0.83501700  1
  N  1381  1  0.24766700  0.01736400  0.83927100  1
  N  1384  1  0.19752700  0.98978600  0.84093300  1
  N  1387  1  0.24174100  0.93926700  0.83567400  1
  N  1388  1  0.29193100  0.04764900  0.83588100  1
  N  1390  1  0.28608100  0.01597600  0.64084800  1
  N  1393  1  0.24726000  0.96960500  0.63645700  1
  N  1396  1  0.19760200  0.99880100  0.63519100  1
  N  1399  1  0.24272100  0.04777500  0.64048500  1
  N  1400  1  0.29090400  0.93793200  0.63939000  1
  N  1402  1  0.24717400  0.01484800  0.13878800  1
  N  1405  1  0.28555000  0.96721500  0.13513300  1
  N  1408  1  0.33562200  0.99490500  0.13400600  1
  N  1411  1  0.29109200  0.04533400  0.13858700  1
  N  1412  1  0.24131200  0.93685700  0.13809800  1
  N  1414  1  0.24727300  0.96952600  0.33387800  1
  N  1417  1  0.28614500  0.01602100  0.33715200  1
  N  1420  1  0.33594500  0.98697400  0.33761700  1
  N  1423  1  0.29069300  0.93778300  0.33364000  1
  N  1424  1  0.24231200  0.04758800  0.33493000  1
  N  1426  1  0.78511400  0.46982600  0.83531500  1
  N  1429  1  0.74707100  0.51765900  0.83893100  1
  N  1432  1  0.69680500  0.49021800  0.84013000  1
  N  1435  1  0.74098400  0.43956400  0.83561200  1
  N  1436  1  0.79152000  0.54779300  0.83591700  1
  N  1438  1  0.78506100  0.51563300  0.64078300  1
  N  1441  1  0.74656600  0.46894600  0.63723000  1
  N  1444  1  0.69658400  0.49776200  0.63650200  1
  N  1447  1  0.74143700  0.54716800  0.64081600  1
  N  1448  1  0.79058400  0.43757900  0.63968200  1
  N  1450  1  0.74658800  0.51541900  0.13928200  1
  N  1453  1  0.78455700  0.46760500  0.13527900  1
  N  1456  1  0.83481600  0.49501600  0.13382500  1
  N  1459  1  0.79070100  0.54570300  0.13878800  1
  N  1460  1  0.74017400  0.43744800  0.13847900  1
  N  1462  1  0.74661100  0.46919700  0.33359100  1
  N  1465  1  0.78526100  0.51575900  0.33743600  1
  N  1468  1  0.83511900  0.48680900  0.33830700  1
  N  1471  1  0.79013700  0.43757200  0.33368100  1
  N  1472  1  0.74140600  0.54723200  0.33488300  1
  N  1474  1  0.54105500  0.23764600  0.89483700  1
  N  1477  1  0.49227000  0.24341200  0.86546500  1
  N  1480  1  0.51798300  0.28464400  0.84901400  1
  N  1483  1  0.57086100  0.27541000  0.88212000  1
  N  1484  1  0.46340600  0.20477500  0.88202800  1
  N  1486  1  0.99969400  0.73663100  0.86308100  1
  N  1489  1  0.03735060  0.74264000  0.89882500  1
  N  1492  1  0.00314457  0.70998300  0.91949800  1
  N  1495  1  0.96455000  0.70460600  0.88233200  1
  N  1496  1  0.07300560  0.77408500  0.88265500  1
  N  1498  1  0.53633000  0.73990000  0.60949800  1
  N  1501  1  0.49181800  0.73818200  0.57702500  1
  N  1504  1  0.52394600  0.70206900  0.55757600  1
  N  1507  1  0.57018100  0.70562800  0.59103200  1
  N  1508  1  0.45802300  0.77264900  0.59219200  1
  N  1510  1  0.99839500  0.24841300  0.60993200  1
  N  1513  1  0.03933360  0.24435900  0.57505500  1
  N  1516  1  0.00506957  0.27697700  0.55413900  1
  N  1519  1  0.96306400  0.28021900  0.59052000  1
  N  1520  1  0.07507760  0.21298300  0.59155000  1
  N  1522  1  0.99873400  0.73524400  0.11119900  1
  N  1525  1  0.03671460  0.74437200  0.07553700  1
  N  1528  1  0.00246657  0.71385100  0.05347100  1
  N  1531  1  0.96356600  0.70522600  0.09063900  1
  N  1532  1  0.07229460  0.77415800  0.09303600  1
  N  1534  1  0.53341500  0.24722100  0.11160600  1
  N  1537  1  0.49367800  0.24381800  0.07663100  1
  N  1540  1  0.52705100  0.27752600  0.05636400  1
  N  1543  1  0.56819200  0.27966700  0.09257100  1
  N  1544  1  0.45900800  0.21121200  0.09233900  1
  N  1546  1  0.99795100  0.24772400  0.36390700  1
  N  1549  1  0.03750760  0.24314700  0.39895900  1
  N  1552  1  0.00243157  0.27548400  0.41997200  1
  N  1555  1  0.96201700  0.27934000  0.38338900  1
  N  1556  1  0.07375660  0.21185600  0.38241200  1
  N  1558  1  0.54088500  0.74825400  0.39475000  1
  N  1561  1  0.49083800  0.74043800  0.36668700  1
  N  1564  1  0.51757000  0.69871000  0.35082000  1
  N  1567  1  0.57145500  0.71022100  0.38222600  1
  N  1568  1  0.46108500  0.77925900  0.38290800  1
  N  1570  1  0.27615800  0.15589300  0.74698100  1
  N  1573  1  0.25737500  0.10719100  0.72693800  1
  N  1576  1  0.27493600  0.07782300  0.75724400  1
  N  1579  1  0.29429400  0.12812000  0.77755300  1
  N  1580  1  0.23970500  0.12980800  0.69614900  1
  N  1582  1  0.25677100  0.83090900  0.74863200  1
  N  1585  1  0.27869500  0.87919000  0.72916600  1
  N  1588  1  0.26278900  0.90847100  0.76010100  1
  N  1591  1  0.24022200  0.85860500  0.77978300  1
  N  1592  1  0.29503400  0.85666000  0.69789600  1
  N  1594  1  0.25519000  0.82922900  0.22747100  1
  N  1597  1  0.27609000  0.87772800  0.24683400  1
  N  1600  1  0.25984100  0.90689800  0.21610400  1
  N  1603  1  0.23826900  0.85681100  0.19650300  1
  N  1604  1  0.29269400  0.85531200  0.27796900  1
  N  1606  1  0.27567300  0.15407300  0.22555100  1
  N  1609  1  0.25473500  0.10580700  0.24551100  1
  N  1612  1  0.27107100  0.07623800  0.21482100  1
  N  1615  1  0.29257900  0.12610200  0.19461800  1
  N  1616  1  0.23805300  0.12863400  0.27658700  1
  N  1618  1  0.77673000  0.65570400  0.74686000  1
  N  1621  1  0.75606100  0.60715900  0.72745000  1
  N  1624  1  0.77275600  0.57795400  0.75805300  1
  N  1627  1  0.79411100  0.62807600  0.77769800  1
  N  1628  1  0.73908000  0.62959500  0.69642100  1
  N  1630  1  0.75583500  0.33074200  0.74875600  1
  N  1633  1  0.77721000  0.37896900  0.72895900  1
  N  1636  1  0.76086600  0.40850300  0.75966300  1
  N  1639  1  0.73896500  0.35868700  0.77973800  1
  N  1640  1  0.79403800  0.35619800  0.69788600  1
  N  1642  1  0.75550800  0.32928100  0.22741400  1
  N  1645  1  0.77483600  0.37792000  0.24730400  1
  N  1648  1  0.75744900  0.40728100  0.21694900  1
  N  1651  1  0.73755900  0.35705100  0.19678200  1
  N  1652  1  0.79243100  0.35531600  0.27812200  1
  N  1654  1  0.77492000  0.65435000  0.22570300  1
  N  1657  1  0.75343600  0.60601400  0.24529700  1
  N  1660  1  0.76956700  0.57670300  0.21442500  1
  N  1663  1  0.79174200  0.62661500  0.19460900  1
  N  1664  1  0.73695800  0.62856200  0.27655000  1
  N  2114  1  0.63226000  0.15945800  0.99850900  1
  N  2117  1  0.68795800  0.16406900  0.97428100  1
  N  2120  1  0.72195100  0.16721800  0.00640300  1
  N  2123  1  0.66352400  0.16256500  0.03107400  1
  N  2124  1  0.66072200  0.16211100  0.94163200  1
  N  2126  1  0.44660800  0.82427900  0.99990800  1
  N  2129  1  0.39039500  0.82056700  0.97677400  1
  N  2132  1  0.35682900  0.81854200  0.00956000  1
  N  2135  1  0.41572600  0.82210200  0.03307800  1
  N  2136  1  0.41711100  0.82190600  0.94355500  1
  N  2138  1  0.62809500  0.82527300  0.47608400  1
  N  2141  1  0.68456600  0.81904600  0.49880400  1
  N  2144  1  0.71742100  0.81490600  0.46578500  1
  N  2147  1  0.65822200  0.82090600  0.44274200  1
  N  2148  1  0.65850500  0.82189000  0.53217700  1
  N  2150  1  0.45012300  0.16132500  0.47461900  1
  N  2153  1  0.39422500  0.16639000  0.49875500  1
  N  2156  1  0.36022500  0.16906800  0.46658100  1
  N  2159  1  0.41879100  0.16410100  0.44201700  1
  N  2160  1  0.42136900  0.16476800  0.53145800  1
  N  2162  1  0.13286200  0.65887100  0.99822800  1
  N  2165  1  0.18855000  0.66538500  0.97427800  1
  N  2168  1  0.22198700  0.66965700  0.00659400  1
  N  2171  1  0.16350100  0.66303000  0.03097300  1
  N  2172  1  0.16176500  0.66242800  0.94145200  1
  N  2174  1  0.94498800  0.32631800  0.99991600  1
  N  2177  1  0.88883900  0.32049500  0.97699900  1
  N  2180  1  0.85573300  0.31704900  0.00990700  1
  N  2183  1  0.91462200  0.32286200  0.03320800  1
  N  2184  1  0.91517700  0.32286800  0.94366000  1
  N  2186  1  0.12878300  0.32556800  0.47579500  1
  N  2189  1  0.18474500  0.31803500  0.49882000  1
  N  2192  1  0.21785400  0.31287000  0.46598400  1
  N  2195  1  0.15910900  0.32042500  0.44257700  1
  N  2196  1  0.15832600  0.32148600  0.53207800  1
  N  2198  1  0.94852100  0.65973000  0.47458000  1
  N  2201  1  0.89299200  0.66569100  0.49896400  1
  N  2204  1  0.85870700  0.66892200  0.46694600  1
  N  2207  1  0.91697000  0.66307600  0.44209600  1
  N  2208  1  0.92049800  0.66379900  0.53154400  1
  N  2210  1  0.55884600  0.96966000  0.83501700  1
  N  2213  1  0.52074600  0.01736400  0.83927100  1
  N  2216  1  0.47060600  0.98978600  0.84093300  1
  N  2219  1  0.51482000  0.93926700  0.83567400  1
  N  2220  1  0.56501000  0.04764900  0.83588100  1
  N  2222  1  0.55916000  0.01597600  0.64084800  1
  N  2225  1  0.52033900  0.96960500  0.63645700  1
  N  2228  1  0.47068100  0.99880100  0.63519100  1
  N  2231  1  0.51580000  0.04777500  0.64048500  1
  N  2232  1  0.56398300  0.93793200  0.63939000  1
  N  2234  1  0.52025300  0.01484800  0.13878800  1
  N  2237  1  0.55862900  0.96721500  0.13513300  1
  N  2240  1  0.60870100  0.99490500  0.13400600  1
  N  2243  1  0.56417100  0.04533400  0.13858700  1
  N  2244  1  0.51439100  0.93685700  0.13809800  1
  N  2246  1  0.52035200  0.96952600  0.33387800  1
  N  2249  1  0.55922400  0.01602100  0.33715200  1
  N  2252  1  0.60902400  0.98697400  0.33761700  1
  N  2255  1  0.56377200  0.93778300  0.33364000  1
  N  2256  1  0.51539100  0.04758800  0.33493000  1
  N  2258  1  0.05819310  0.46982600  0.83531500  1
  N  2261  1  0.02015010  0.51765900  0.83893100  1
  N  2264  1  0.96988400  0.49021800  0.84013000  1
  N  2267  1  0.01406310  0.43956400  0.83561200  1
  N  2268  1  0.06459910  0.54779300  0.83591700  1
  N  2270  1  0.05814010  0.51563300  0.64078300  1
  N  2273  1  0.01964510  0.46894600  0.63723000  1
  N  2276  1  0.96966300  0.49776200  0.63650200  1
  N  2279  1  0.01451610  0.54716800  0.64081600  1
  N  2280  1  0.06366310  0.43757900  0.63968200  1
  N  2282  1  0.01966710  0.51541900  0.13928200  1
  N  2285  1  0.05763610  0.46760500  0.13527900  1
  N  2288  1  0.10789500  0.49501600  0.13382500  1
  N  2291  1  0.06378010  0.54570300  0.13878800  1
  N  2292  1  0.01325310  0.43744800  0.13847900  1
  N  2294  1  0.01969010  0.46919700  0.33359100  1
  N  2297  1  0.05834010  0.51575900  0.33743600  1
  N  2300  1  0.10819800  0.48680900  0.33830700  1
  N  2303  1  0.06321610  0.43757200  0.33368100  1
  N  2304  1  0.01448510  0.54723200  0.33488300  1
  N  2306  1  0.81413400  0.23764600  0.89483700  1
  N  2309  1  0.76534900  0.24341200  0.86546500  1
  N  2312  1  0.79106200  0.28464400  0.84901400  1
  N  2315  1  0.84394000  0.27541000  0.88212000  1
  N  2316  1  0.73648500  0.20477500  0.88202800  1
  N  2318  1  0.27277300  0.73663100  0.86308100  1
  N  2321  1  0.31043000  0.74264000  0.89882500  1
  N  2324  1  0.27622400  0.70998300  0.91949800  1
  N  2327  1  0.23762900  0.70460600  0.88233200  1
  N  2328  1  0.34608500  0.77408500  0.88265500  1
  N  2330  1  0.80940900  0.73990000  0.60949800  1
  N  2333  1  0.76489700  0.73818200  0.57702500  1
  N  2336  1  0.79702500  0.70206900  0.55757600  1
  N  2339  1  0.84326000  0.70562800  0.59103200  1
  N  2340  1  0.73110200  0.77264900  0.59219200  1
  N  2342  1  0.27147400  0.24841300  0.60993200  1
  N  2345  1  0.31241300  0.24435900  0.57505500  1
  N  2348  1  0.27814900  0.27697700  0.55413900  1
  N  2351  1  0.23614300  0.28021900  0.59052000  1
  N  2352  1  0.34815700  0.21298300  0.59155000  1
  N  2354  1  0.27181300  0.73524400  0.11119900  1
  N  2357  1  0.30979400  0.74437200  0.07553700  1
  N  2360  1  0.27554600  0.71385100  0.05347100  1
  N  2363  1  0.23664500  0.70522600  0.09063900  1
  N  2364  1  0.34537400  0.77415800  0.09303600  1
  N  2366  1  0.80649400  0.24722100  0.11160600  1
  N  2369  1  0.76675700  0.24381800  0.07663100  1
  N  2372  1  0.80013000  0.27752600  0.05636400  1
  N  2375  1  0.84127100  0.27966700  0.09257100  1
  N  2376  1  0.73208700  0.21121200  0.09233900  1
  N  2378  1  0.27103000  0.24772400  0.36390700  1
  N  2381  1  0.31058700  0.24314700  0.39895900  1
  N  2384  1  0.27551100  0.27548400  0.41997200  1
  N  2387  1  0.23509600  0.27934000  0.38338900  1
  N  2388  1  0.34683600  0.21185600  0.38241200  1
  N  2390  1  0.81396400  0.74825400  0.39475000  1
  N  2393  1  0.76391700  0.74043800  0.36668700  1
  N  2396  1  0.79064900  0.69871000  0.35082000  1
  N  2399  1  0.84453400  0.71022100  0.38222600  1
  N  2400  1  0.73416400  0.77925900  0.38290800  1
  N  2402  1  0.54923700  0.15589300  0.74698100  1
  N  2405  1  0.53045400  0.10719100  0.72693800  1
  N  2408  1  0.54801500  0.07782300  0.75724400  1
  N  2411  1  0.56737300  0.12812000  0.77755300  1
  N  2412  1  0.51278400  0.12980800  0.69614900  1
  N  2414  1  0.52985000  0.83090900  0.74863200  1
  N  2417  1  0.55177400  0.87919000  0.72916600  1
  N  2420  1  0.53586800  0.90847100  0.76010100  1
  N  2423  1  0.51330100  0.85860500  0.77978300  1
  N  2424  1  0.56811300  0.85666000  0.69789600  1
  N  2426  1  0.52826900  0.82922900  0.22747100  1
  N  2429  1  0.54916900  0.87772800  0.24683400  1
  N  2432  1  0.53292000  0.90689800  0.21610400  1
  N  2435  1  0.51134800  0.85681100  0.19650300  1
  N  2436  1  0.56577300  0.85531200  0.27796900  1
  N  2438  1  0.54875200  0.15407300  0.22555100  1
  N  2441  1  0.52781400  0.10580700  0.24551100  1
  N  2444  1  0.54415000  0.07623800  0.21482100  1
  N  2447  1  0.56565800  0.12610200  0.19461800  1
  N  2448  1  0.51113200  0.12863400  0.27658700  1
  N  2450  1  0.04980910  0.65570400  0.74686000  1
  N  2453  1  0.02914010  0.60715900  0.72745000  1
  N  2456  1  0.04583510  0.57795400  0.75805300  1
  N  2459  1  0.06719010  0.62807600  0.77769800  1
  N  2460  1  0.01215910  0.62959500  0.69642100  1
  N  2462  1  0.02891410  0.33074200  0.74875600  1
  N  2465  1  0.05028910  0.37896900  0.72895900  1
  N  2468  1  0.03394510  0.40850300  0.75966300  1
  N  2471  1  0.01204410  0.35868700  0.77973800  1
  N  2472  1  0.06711710  0.35619800  0.69788600  1
  N  2474  1  0.02858710  0.32928100  0.22741400  1
  N  2477  1  0.04791510  0.37792000  0.24730400  1
  N  2480  1  0.03052810  0.40728100  0.21694900  1
  N  2483  1  0.01063810  0.35705100  0.19678200  1
  N  2484  1  0.06551010  0.35531600  0.27812200  1
  N  2486  1  0.04799910  0.65435000  0.22570300  1
  N  2489  1  0.02651510  0.60601400  0.24529700  1
  N  2492  1  0.04264610  0.57670300  0.21442500  1
  N  2495  1  0.06482110  0.62661500  0.19460900  1
  N  2496  1  0.01003710  0.62856200  0.27655000  1
  O  17  1  0.05586200  0.13364800  0.89287800  1
  O  18  1  0.06670200  0.17662300  0.82564900  1
  O  45  1  0.93220300  0.84738100  0.89504500  1
  O  46  1  0.91882600  0.80960500  0.82682600  1
  O  73  1  0.05204200  0.84838600  0.58184600  1
  O  74  1  0.06498900  0.80770700  0.64836900  1
  O  101  1  0.93679400  0.13984700  0.58018100  1
  O  102  1  0.92218300  0.17926200  0.64788900  1
  O  129  1  0.93083000  0.84873600  0.08118500  1
  O  130  1  0.91847900  0.80830700  0.14886200  1
  O  157  1  0.05478500  0.13692700  0.07912500  1
  O  158  1  0.06730300  0.17512600  0.14741100  1
  O  185  1  0.93425600  0.13703900  0.39298000  1
  O  186  1  0.92200500  0.17781800  0.32605700  1
  O  213  1  0.05076500  0.84853500  0.39443000  1
  O  214  1  0.06213100  0.80576300  0.32684700  1
  O  241  1  0.55616000  0.63450000  0.89283900  1
  O  242  1  0.56773100  0.67639700  0.82543900  1
  O  269  1  0.43066500  0.34816200  0.89528900  1
  O  270  1  0.41767300  0.31002900  0.82703000  1
  O  297  1  0.55290200  0.35024800  0.58162600  1
  O  298  1  0.56383500  0.30725500  0.64822500  1
  O  325  1  0.43491200  0.63685000  0.58025600  1
  O  326  1  0.42262900  0.67894200  0.64774300  1
  O  353  1  0.42908200  0.35106300  0.08131100  1
  O  354  1  0.41847100  0.30866900  0.14881600  1
  O  381  1  0.55528100  0.63571300  0.07896800  1
  O  382  1  0.56644900  0.67558700  0.14730800  1
  O  409  1  0.43271100  0.63609800  0.39315600  1
  O  410  1  0.42095200  0.67738900  0.32623800  1
  O  437  1  0.55106700  0.34764100  0.39442300  1
  O  438  1  0.56314700  0.30588400  0.32665100  1
  O  457  1  0.18895300  0.19044200  0.00065700  1
  O  458  1  0.19479500  0.14686700  0.00069600  1
  O  469  1  0.79674700  0.79555300  0.00424600  1
  O  470  1  0.79217900  0.83922900  0.00405400  1
  O  481  1  0.18434300  0.79127500  0.47116200  1
  O  482  1  0.19068000  0.83466000  0.47099200  1
  O  493  1  0.80025400  0.19239600  0.47210200  1
  O  494  1  0.79560900  0.14882800  0.47245600  1
  O  505  1  0.68802900  0.69330400  0.00091800  1
  O  506  1  0.69578900  0.64994900  0.00099600  1
  O  517  1  0.29679800  0.29362500  0.00442600  1
  O  518  1  0.29000500  0.33707700  0.00461800  1
  O  529  1  0.68394900  0.28904500  0.47167300  1
  O  530  1  0.69168800  0.33221500  0.47111600  1
  O  541  1  0.29928400  0.69244500  0.47256300  1
  O  542  1  0.29372500  0.64897200  0.47289000  1
  O  553  1  0.91419900  0.00118700  0.85835500  1
  O  554  1  0.91137600  0.00300700  0.82527100  1
  O  565  1  0.91450100  0.98796400  0.61771200  1
  O  566  1  0.91093100  0.98578600  0.65078700  1
  O  577  1  0.07330700  0.98344200  0.11674000  1
  O  578  1  0.07520400  0.98178600  0.14986000  1
  O  589  1  0.07363900  0.99802400  0.35481500  1
  O  590  1  0.07568800  0.99985200  0.32167900  1
  O  601  1  0.41305300  0.50177400  0.85738500  1
  O  602  1  0.41112200  0.50334800  0.82426300  1
  O  613  1  0.41302100  0.48668600  0.61923300  1
  O  614  1  0.41054800  0.48480700  0.65235800  1
  O  625  1  0.57211500  0.48355700  0.11645900  1
  O  626  1  0.57457700  0.48177500  0.14956000  1
  O  637  1  0.57237500  0.49778700  0.35565200  1
  O  638  1  0.57519300  0.49980700  0.32254300  1
  O  649  1  0.21983600  0.30062400  0.85184900  1
  O  650  1  0.24389700  0.27458200  0.83002200  1
  O  661  1  0.75401500  0.69401500  0.92487900  1
  O  662  1  0.72464800  0.72761500  0.93469700  1
  O  673  1  0.25214600  0.71644200  0.54023900  1
  O  674  1  0.22712300  0.68490400  0.55619300  1
  O  685  1  0.75547800  0.29353500  0.54958600  1
  O  686  1  0.72880700  0.25971500  0.53854300  1
  O  697  1  0.75323800  0.69826900  0.04704100  1
  O  698  1  0.72425000  0.73287600  0.03928800  1
  O  709  1  0.25803100  0.26079600  0.04044000  1
  O  710  1  0.23000900  0.29414100  0.05221200  1
  O  721  1  0.75257800  0.29203700  0.42480100  1
  O  722  1  0.72568800  0.25791600  0.43536500  1
  O  733  1  0.22036900  0.68257200  0.35478100  1
  O  734  1  0.24186700  0.70771400  0.33158900  1
  O  745  1  0.02007800  0.06169700  0.74568700  1
  O  746  1  0.97423000  0.06590800  0.75956200  1
  O  757  1  0.97258300  0.92573700  0.74898400  1
  O  758  1  0.01804300  0.91899900  0.76231600  1
  O  769  1  0.96922500  0.92386900  0.22741700  1
  O  770  1  0.01489700  0.91784900  0.21364200  1
  O  781  1  0.01547200  0.05939700  0.22606700  1
  O  782  1  0.96985500  0.06527600  0.21275000  1
  O  793  1  0.51725600  0.56112900  0.74664500  1
  O  794  1  0.47164200  0.56683000  0.76057500  1
  O  805  1  0.47048500  0.42546800  0.74840400  1
  O  806  1  0.51598300  0.41931600  0.76183200  1
  O  817  1  0.46634400  0.42358800  0.22849100  1
  O  818  1  0.51210400  0.41898600  0.21455400  1
  O  829  1  0.51376200  0.55959700  0.22558200  1
  O  830  1  0.46824500  0.56598200  0.21224100  1
  O  849  1  0.32894200  0.13364800  0.89287800  1
  O  850  1  0.33978200  0.17662300  0.82564900  1
  O  877  1  0.20528300  0.84738100  0.89504500  1
  O  878  1  0.19190600  0.80960500  0.82682600  1
  O  905  1  0.32512200  0.84838600  0.58184600  1
  O  906  1  0.33806900  0.80770700  0.64836900  1
  O  933  1  0.20987400  0.13984700  0.58018100  1
  O  934  1  0.19526300  0.17926200  0.64788900  1
  O  961  1  0.20391000  0.84873600  0.08118500  1
  O  962  1  0.19155900  0.80830700  0.14886200  1
  O  989  1  0.32786500  0.13692700  0.07912500  1
  O  990  1  0.34038300  0.17512600  0.14741100  1
  O  1017  1  0.20733600  0.13703900  0.39298000  1
  O  1018  1  0.19508500  0.17781800  0.32605700  1
  O  1045  1  0.32384500  0.84853500  0.39443000  1
  O  1046  1  0.33521100  0.80576300  0.32684700  1
  O  1073  1  0.82924000  0.63450000  0.89283900  1
  O  1074  1  0.84081100  0.67639700  0.82543900  1
  O  1101  1  0.70374500  0.34816200  0.89528900  1
  O  1102  1  0.69075300  0.31002900  0.82703000  1
  O  1129  1  0.82598200  0.35024800  0.58162600  1
  O  1130  1  0.83691500  0.30725500  0.64822500  1
  O  1157  1  0.70799200  0.63685000  0.58025600  1
  O  1158  1  0.69570900  0.67894200  0.64774300  1
  O  1185  1  0.70216200  0.35106300  0.08131100  1
  O  1186  1  0.69155100  0.30866900  0.14881600  1
  O  1213  1  0.82836100  0.63571300  0.07896800  1
  O  1214  1  0.83952900  0.67558700  0.14730800  1
  O  1241  1  0.70579100  0.63609800  0.39315600  1
  O  1242  1  0.69403200  0.67738900  0.32623800  1
  O  1269  1  0.82414700  0.34764100  0.39442300  1
  O  1270  1  0.83622700  0.30588400  0.32665100  1
  O  1289  1  0.46203300  0.19044200  0.00065700  1
  O  1290  1  0.46787500  0.14686700  0.00069600  1
  O  1301  1  0.06982660  0.79555300  0.00424600  1
  O  1302  1  0.06525860  0.83922900  0.00405400  1
  O  1313  1  0.45742300  0.79127500  0.47116200  1
  O  1314  1  0.46376000  0.83466000  0.47099200  1
  O  1325  1  0.07333360  0.19239600  0.47210200  1
  O  1326  1  0.06868860  0.14882800  0.47245600  1
  O  1337  1  0.96110900  0.69330400  0.00091800  1
  O  1338  1  0.96886900  0.64994900  0.00099600  1
  O  1349  1  0.56987800  0.29362500  0.00442600  1
  O  1350  1  0.56308500  0.33707700  0.00461800  1
  O  1361  1  0.95702900  0.28904500  0.47167300  1
  O  1362  1  0.96476800  0.33221500  0.47111600  1
  O  1373  1  0.57236400  0.69244500  0.47256300  1
  O  1374  1  0.56680500  0.64897200  0.47289000  1
  O  1385  1  0.18727900  0.00118700  0.85835500  1
  O  1386  1  0.18445600  0.00300700  0.82527100  1
  O  1397  1  0.18758100  0.98796400  0.61771200  1
  O  1398  1  0.18401100  0.98578600  0.65078700  1
  O  1409  1  0.34638700  0.98344200  0.11674000  1
  O  1410  1  0.34828400  0.98178600  0.14986000  1
  O  1421  1  0.34671900  0.99802400  0.35481500  1
  O  1422  1  0.34876800  0.99985200  0.32167900  1
  O  1433  1  0.68613300  0.50177400  0.85738500  1
  O  1434  1  0.68420200  0.50334800  0.82426300  1
  O  1445  1  0.68610100  0.48668600  0.61923300  1
  O  1446  1  0.68362800  0.48480700  0.65235800  1
  O  1457  1  0.84519500  0.48355700  0.11645900  1
  O  1458  1  0.84765700  0.48177500  0.14956000  1
  O  1469  1  0.84545500  0.49778700  0.35565200  1
  O  1470  1  0.84827300  0.49980700  0.32254300  1
  O  1481  1  0.49291600  0.30062400  0.85184900  1
  O  1482  1  0.51697700  0.27458200  0.83002200  1
  O  1493  1  0.02709460  0.69401500  0.92487900  1
  O  1494  1  0.99772800  0.72761500  0.93469700  1
  O  1505  1  0.52522600  0.71644200  0.54023900  1
  O  1506  1  0.50020300  0.68490400  0.55619300  1
  O  1517  1  0.02855760  0.29353500  0.54958600  1
  O  1518  1  0.00188657  0.25971500  0.53854300  1
  O  1529  1  0.02631760  0.69826900  0.04704100  1
  O  1530  1  0.99733000  0.73287600  0.03928800  1
  O  1541  1  0.53111100  0.26079600  0.04044000  1
  O  1542  1  0.50308900  0.29414100  0.05221200  1
  O  1553  1  0.02565760  0.29203700  0.42480100  1
  O  1554  1  0.99876800  0.25791600  0.43536500  1
  O  1565  1  0.49344900  0.68257200  0.35478100  1
  O  1566  1  0.51494700  0.70771400  0.33158900  1
  O  1577  1  0.29315800  0.06169700  0.74568700  1
  O  1578  1  0.24731000  0.06590800  0.75956200  1
  O  1589  1  0.24566300  0.92573700  0.74898400  1
  O  1590  1  0.29112300  0.91899900  0.76231600  1
  O  1601  1  0.24230500  0.92386900  0.22741700  1
  O  1602  1  0.28797700  0.91784900  0.21364200  1
  O  1613  1  0.28855200  0.05939700  0.22606700  1
  O  1614  1  0.24293500  0.06527600  0.21275000  1
  O  1625  1  0.79033600  0.56112900  0.74664500  1
  O  1626  1  0.74472200  0.56683000  0.76057500  1
  O  1637  1  0.74356500  0.42546800  0.74840400  1
  O  1638  1  0.78906300  0.41931600  0.76183200  1
  O  1649  1  0.73942400  0.42358800  0.22849100  1
  O  1650  1  0.78518400  0.41898600  0.21455400  1
  O  1661  1  0.78684200  0.55959700  0.22558200  1
  O  1662  1  0.74132500  0.56598200  0.21224100  1
  O  1681  1  0.60202100  0.13364800  0.89287800  1
  O  1682  1  0.61286100  0.17662300  0.82564900  1
  O  1709  1  0.47836200  0.84738100  0.89504500  1
  O  1710  1  0.46498500  0.80960500  0.82682600  1
  O  1737  1  0.59820100  0.84838600  0.58184600  1
  O  1738  1  0.61114800  0.80770700  0.64836900  1
  O  1765  1  0.48295300  0.13984700  0.58018100  1
  O  1766  1  0.46834200  0.17926200  0.64788900  1
  O  1793  1  0.47698900  0.84873600  0.08118500  1
  O  1794  1  0.46463800  0.80830700  0.14886200  1
  O  1821  1  0.60094400  0.13692700  0.07912500  1
  O  1822  1  0.61346200  0.17512600  0.14741100  1
  O  1849  1  0.48041500  0.13703900  0.39298000  1
  O  1850  1  0.46816400  0.17781800  0.32605700  1
  O  1877  1  0.59692400  0.84853500  0.39443000  1
  O  1878  1  0.60829000  0.80576300  0.32684700  1
  O  1905  1  0.10231900  0.63450000  0.89283900  1
  O  1906  1  0.11389000  0.67639700  0.82543900  1
  O  1933  1  0.97682400  0.34816200  0.89528900  1
  O  1934  1  0.96383200  0.31002900  0.82703000  1
  O  1961  1  0.09906110  0.35024800  0.58162600  1
  O  1962  1  0.10999400  0.30725500  0.64822500  1
  O  1989  1  0.98107100  0.63685000  0.58025600  1
  O  1990  1  0.96878800  0.67894200  0.64774300  1
  O  2017  1  0.97524100  0.35106300  0.08131100  1
  O  2018  1  0.96463000  0.30866900  0.14881600  1
  O  2045  1  0.10144000  0.63571300  0.07896800  1
  O  2046  1  0.11260800  0.67558700  0.14730800  1
  O  2073  1  0.97887000  0.63609800  0.39315600  1
  O  2074  1  0.96711100  0.67738900  0.32623800  1
  O  2101  1  0.09722610  0.34764100  0.39442300  1
  O  2102  1  0.10930600  0.30588400  0.32665100  1
  O  2121  1  0.73511200  0.19044200  0.00065700  1
  O  2122  1  0.74095400  0.14686700  0.00069600  1
  O  2133  1  0.34290600  0.79555300  0.00424600  1
  O  2134  1  0.33833800  0.83922900  0.00405400  1
  O  2145  1  0.73050200  0.79127500  0.47116200  1
  O  2146  1  0.73683900  0.83466000  0.47099200  1
  O  2157  1  0.34641300  0.19239600  0.47210200  1
  O  2158  1  0.34176800  0.14882800  0.47245600  1
  O  2169  1  0.23418800  0.69330400  0.00091800  1
  O  2170  1  0.24194800  0.64994900  0.00099600  1
  O  2181  1  0.84295700  0.29362500  0.00442600  1
  O  2182  1  0.83616400  0.33707700  0.00461800  1
  O  2193  1  0.23010800  0.28904500  0.47167300  1
  O  2194  1  0.23784700  0.33221500  0.47111600  1
  O  2205  1  0.84544300  0.69244500  0.47256300  1
  O  2206  1  0.83988400  0.64897200  0.47289000  1
  O  2217  1  0.46035800  0.00118700  0.85835500  1
  O  2218  1  0.45753500  0.00300700  0.82527100  1
  O  2229  1  0.46066000  0.98796400  0.61771200  1
  O  2230  1  0.45709000  0.98578600  0.65078700  1
  O  2241  1  0.61946600  0.98344200  0.11674000  1
  O  2242  1  0.62136300  0.98178600  0.14986000  1
  O  2253  1  0.61979800  0.99802400  0.35481500  1
  O  2254  1  0.62184700  0.99985200  0.32167900  1
  O  2265  1  0.95921200  0.50177400  0.85738500  1
  O  2266  1  0.95728100  0.50334800  0.82426300  1
  O  2277  1  0.95918000  0.48668600  0.61923300  1
  O  2278  1  0.95670700  0.48480700  0.65235800  1
  O  2289  1  0.11827400  0.48355700  0.11645900  1
  O  2290  1  0.12073600  0.48177500  0.14956000  1
  O  2301  1  0.11853400  0.49778700  0.35565200  1
  O  2302  1  0.12135200  0.49980700  0.32254300  1
  O  2313  1  0.76599500  0.30062400  0.85184900  1
  O  2314  1  0.79005600  0.27458200  0.83002200  1
  O  2325  1  0.30017400  0.69401500  0.92487900  1
  O  2326  1  0.27080700  0.72761500  0.93469700  1
  O  2337  1  0.79830500  0.71644200  0.54023900  1
  O  2338  1  0.77328200  0.68490400  0.55619300  1
  O  2349  1  0.30163700  0.29353500  0.54958600  1
  O  2350  1  0.27496600  0.25971500  0.53854300  1
  O  2361  1  0.29939700  0.69826900  0.04704100  1
  O  2362  1  0.27040900  0.73287600  0.03928800  1
  O  2373  1  0.80419000  0.26079600  0.04044000  1
  O  2374  1  0.77616800  0.29414100  0.05221200  1
  O  2385  1  0.29873700  0.29203700  0.42480100  1
  O  2386  1  0.27184700  0.25791600  0.43536500  1
  O  2397  1  0.76652800  0.68257200  0.35478100  1
  O  2398  1  0.78802600  0.70771400  0.33158900  1
  O  2409  1  0.56623700  0.06169700  0.74568700  1
  O  2410  1  0.52038900  0.06590800  0.75956200  1
  O  2421  1  0.51874200  0.92573700  0.74898400  1
  O  2422  1  0.56420200  0.91899900  0.76231600  1
  O  2433  1  0.51538400  0.92386900  0.22741700  1
  O  2434  1  0.56105600  0.91784900  0.21364200  1
  O  2445  1  0.56163100  0.05939700  0.22606700  1
  O  2446  1  0.51601400  0.06527600  0.21275000  1
  O  2457  1  0.06341510  0.56112900  0.74664500  1
  O  2458  1  0.01780110  0.56683000  0.76057500  1
  O  2469  1  0.01664410  0.42546800  0.74840400  1
  O  2470  1  0.06214210  0.41931600  0.76183200  1
  O  2481  1  0.01250310  0.42358800  0.22849100  1
  O  2482  1  0.05826310  0.41898600  0.21455400  1
  O  2493  1  0.05992110  0.55959700  0.22558200  1
  O  2494  1  0.01440410  0.56598200  0.21224100  1
