# generated using pymatgen
data_H11C15N4
_symmetry_space_group_name_H-M   'P 1'
_cell_length_a   40.45060000
_cell_length_b   40.45060000
_cell_length_c   40.45060000
_cell_angle_alpha   90.00000000
_cell_angle_beta   90.00000000
_cell_angle_gamma   90.00000000
_symmetry_Int_Tables_number   1
_chemical_formula_structural   H11C15N4
_chemical_formula_sum   'H528 C720 N192'
_cell_volume   66187.33633319
_cell_formula_units_Z   48
loop_
 _symmetry_equiv_pos_site_id
 _symmetry_equiv_pos_as_xyz
  1  'x, y, z'
loop_
 _atom_site_type_symbol
 _atom_site_label
 _atom_site_symmetry_multiplicity
 _atom_site_fract_x
 _atom_site_fract_y
 _atom_site_fract_z
 _atom_site_occupancy
  H  7  1  0.32007200  0.35529800  0.05789700  1
  H  16  1  0.35525300  0.31996800  0.95244600  1
  H  17  1  0.44595400  0.25648800  0.02348100  1
  H  18  1  0.44661100  0.25837200  0.98337500  1
  H  19  1  0.25646600  0.44587700  0.98689800  1
  H  20  1  0.25836000  0.44660400  0.02700200  1
  H  21  1  0.31253200  0.35095200  0.95400100  1
  H  22  1  0.35101100  0.31256600  0.05635500  1
  H  29  1  0.69034600  0.65513500  0.05793200  1
  H  38  1  0.65499400  0.69031400  0.95248800  1
  H  39  1  0.56440200  0.75393400  0.02350400  1
  H  40  1  0.56368300  0.75207800  0.98340900  1
  H  41  1  0.75402100  0.56449800  0.98689800  1
  H  42  1  0.75209800  0.56384600  0.02698900  1
  H  43  1  0.69774000  0.65939200  0.95402300  1
  H  44  1  0.65937200  0.69786600  0.05638200  1
  H  51  1  0.69037800  0.35533500  0.95248000  1
  H  60  1  0.65508500  0.32006700  0.05791500  1
  H  61  1  0.56449600  0.25629300  0.98689300  1
  H  62  1  0.56384600  0.25816400  0.02697500  1
  H  63  1  0.75415700  0.44588700  0.02352000  1
  H  64  1  0.75230500  0.44656900  0.98343900  1
  H  65  1  0.69783900  0.35099400  0.05638300  1
  H  66  1  0.65940900  0.31260400  0.95401300  1
  H  73  1  0.32020000  0.65492000  0.95242600  1
  H  82  1  0.35536900  0.69018800  0.05788700  1
  H  83  1  0.44590900  0.75391700  0.98689300  1
  H  84  1  0.44660900  0.75195400  0.02699100  1
  H  85  1  0.25659900  0.56435500  0.02344200  1
  H  86  1  0.25851800  0.56361600  0.98334300  1
  H  87  1  0.31247700  0.65941700  0.05630200  1
  H  88  1  0.35095200  0.69783100  0.95400300  1
  H  95  1  0.05788600  0.32004700  0.35524300  1
  H  104  1  0.95243800  0.35532000  0.32003700  1
  H  105  1  0.02346700  0.44586700  0.25632700  1
  H  106  1  0.98336500  0.44657200  0.25829800  1
  H  107  1  0.98687000  0.25655500  0.44590200  1
  H  108  1  0.02697600  0.25842600  0.44660600  1
  H  109  1  0.95399100  0.31251200  0.35090200  1
  H  110  1  0.05632600  0.35091200  0.31243000  1
  H  117  1  0.05790900  0.69053100  0.65518900  1
  H  126  1  0.95249500  0.65517200  0.69053100  1
  H  127  1  0.02356100  0.56450300  0.75398400  1
  H  128  1  0.98346400  0.56382100  0.75226300  1
  H  129  1  0.98683100  0.75408300  0.56449800  1
  H  130  1  0.02692200  0.75219900  0.56385300  1
  H  131  1  0.95397600  0.69769000  0.65932000  1
  H  132  1  0.05642700  0.65933000  0.69770500  1
  H  139  1  0.95253500  0.69035300  0.35530500  1
  H  148  1  0.05796000  0.65501900  0.32002500  1
  H  149  1  0.98689500  0.56443900  0.25628300  1
  H  150  1  0.02697500  0.56375900  0.25817900  1
  H  151  1  0.02359100  0.75408500  0.44588200  1
  H  152  1  0.98350800  0.75226800  0.44654200  1
  H  153  1  0.05644500  0.69772500  0.35101100  1
  H  154  1  0.95406000  0.65938000  0.31257600  1
  H  161  1  0.95240400  0.32012400  0.65501900  1
  H  170  1  0.05786300  0.35531000  0.69031900  1
  H  171  1  0.98688800  0.44598600  0.75383600  1
  H  172  1  0.02698800  0.44665600  0.75193900  1
  H  173  1  0.02342000  0.25641900  0.56441700  1
  H  174  1  0.98333300  0.25838200  0.56373200  1
  H  175  1  0.05629100  0.31253200  0.65941700  1
  H  176  1  0.95395900  0.35103600  0.69779400  1
  H  183  1  0.35524100  0.05791100  0.31996600  1
  H  192  1  0.31987400  0.95248500  0.35523100  1
  H  193  1  0.25644900  0.02356300  0.44593400  1
  H  194  1  0.25828800  0.98345600  0.44657900  1
  H  195  1  0.44586200  0.98686300  0.25646600  1
  H  196  1  0.44656900  0.02696900  0.25830000  1
  H  197  1  0.35099100  0.95399600  0.31262800  1
  H  198  1  0.31262600  0.05641000  0.35104800  1
  H  205  1  0.65505600  0.05790300  0.69028100  1
  H  214  1  0.69027900  0.95246000  0.65499900  1
  H  215  1  0.75393700  0.02347600  0.56444200  1
  H  216  1  0.75206800  0.98338700  0.56369000  1
  H  217  1  0.56450300  0.98689500  0.75409300  1
  H  218  1  0.56384300  0.02698300  0.75214000  1
  H  219  1  0.65939200  0.95400300  0.69779400  1
  H  220  1  0.69783400  0.05635500  0.65938200  1
  H  227  1  0.35536400  0.95249800  0.69035800  1
  H  236  1  0.32005000  0.05792800  0.65506600  1
  H  237  1  0.25623400  0.98688500  0.56451100  1
  H  238  1  0.25810500  0.02696600  0.56384800  1
  H  239  1  0.44595400  0.02353900  0.75407000  1
  H  240  1  0.44661900  0.98345600  0.75224100  1
  H  241  1  0.35108000  0.05640900  0.69773500  1
  H  242  1  0.31270000  0.95401300  0.65932300  1
  H  249  1  0.65493700  0.95241800  0.32017300  1
  H  258  1  0.69020700  0.05787900  0.35537200  1
  H  259  1  0.75390200  0.98687000  0.44590900  1
  H  260  1  0.75197200  0.02697000  0.44661400  1
  H  261  1  0.56435500  0.02342300  0.25660200  1
  H  262  1  0.56363100  0.98332300  0.25849300  1
  H  263  1  0.65937200  0.05630200  0.31252400  1
  H  264  1  0.69779900  0.95398800  0.35096900  1
  H  271  1  0.80823000  0.84724800  0.55609600  1
  H  280  1  0.84731000  0.80830900  0.45415600  1
  H  281  1  0.94475200  0.75772200  0.52701100  1
  H  282  1  0.94374400  0.75491300  0.48704300  1
  H  283  1  0.75731400  0.94450000  0.48324400  1
  H  284  1  0.75444100  0.94352100  0.52320400  1
  H  285  1  0.81683100  0.85195500  0.45234700  1
  H  286  1  0.85190100  0.81678400  0.55792000  1
  H  293  1  0.20202500  0.16312900  0.55618700  1
  H  302  1  0.16311200  0.20217200  0.45423100  1
  H  303  1  0.06588300  0.25327700  0.52705300  1
  H  304  1  0.06688000  0.25618200  0.48710800  1
  H  305  1  0.25294100  0.06575100  0.48336500  1
  H  306  1  0.25571200  0.06679700  0.52332000  1
  H  307  1  0.19355700  0.15848700  0.45242300  1
  H  308  1  0.15837400  0.19359600  0.55797700  1
  H  315  1  0.20200000  0.84735700  0.45421300  1
  H  324  1  0.16304100  0.80838400  0.55620700  1
  H  325  1  0.06593800  0.75690300  0.48334800  1
  H  326  1  0.06692700  0.75418700  0.52329500  1
  H  327  1  0.25309600  0.94461400  0.52705800  1
  H  328  1  0.25589700  0.94363500  0.48711800  1
  H  329  1  0.19363000  0.85192800  0.55798400  1
  H  330  1  0.15845100  0.81675200  0.45243600  1
  H  337  1  0.80820800  0.16315600  0.45418600  1
  H  346  1  0.84720400  0.20218500  0.55610100  1
  H  347  1  0.94451700  0.25309100  0.48325900  1
  H  348  1  0.94347900  0.25594400  0.52321800  1
  H  349  1  0.75766700  0.06571500  0.52700600  1
  H  350  1  0.75474000  0.06671600  0.48705100  1
  H  351  1  0.81685600  0.15842900  0.55793000  1
  H  352  1  0.85195500  0.19353000  0.45235900  1
  H  359  1  0.55609300  0.80814400  0.84720600  1
  H  368  1  0.45421600  0.84723300  0.80821300  1
  H  369  1  0.52710500  0.94468300  0.75766700  1
  H  370  1  0.48714200  0.94366200  0.75480700  1
  H  371  1  0.48321700  0.75741300  0.94455000  1
  H  372  1  0.52317600  0.75450300  0.94355600  1
  H  373  1  0.45235900  0.81686800  0.85195500  1
  H  374  1  0.55795700  0.85191600  0.81687800  1
  H  381  1  0.55616200  0.20209100  0.16313000  1
  H  390  1  0.45420800  0.16311800  0.20210400  1
  H  391  1  0.52701300  0.06585300  0.25309900  1
  H  392  1  0.48707100  0.06682600  0.25599400  1
  H  393  1  0.48336000  0.25297000  0.06571900  1
  H  394  1  0.52331200  0.25575400  0.06677700  1
  H  395  1  0.45240900  0.19357400  0.15843500  1
  H  396  1  0.55796000  0.15841200  0.19356400  1
  H  403  1  0.45423800  0.20213300  0.84725800  1
  H  412  1  0.55619700  0.16315400  0.80827000  1
  H  413  1  0.48336200  0.06587100  0.75713300  1
  H  414  1  0.52330200  0.06688700  0.75435700  1
  H  415  1  0.52710000  0.25330400  0.94448300  1
  H  416  1  0.48716200  0.25612500  0.94349600  1
  H  417  1  0.55799400  0.19363700  0.85190300  1
  H  418  1  0.45243800  0.15850000  0.81675400  1
  H  425  1  0.45415900  0.80812100  0.16321000  1
  H  434  1  0.55604900  0.84714400  0.20225900  1
  H  435  1  0.48319900  0.94457700  0.25285900  1
  H  436  1  0.52315900  0.94356800  0.25571400  1
  H  437  1  0.52703500  0.75725700  0.06584900  1
  H  438  1  0.48708800  0.75444600  0.06688100  1
  H  439  1  0.55789500  0.81682600  0.15847300  1
  H  440  1  0.45231200  0.85188300  0.19355500  1
  H  447  1  0.84733500  0.55621700  0.80840300  1
  H  456  1  0.80830900  0.45425000  0.84732500  1
  H  457  1  0.75733900  0.52708000  0.94462400  1
  H  458  1  0.75454000  0.48711300  0.94359500  1
  H  459  1  0.94460600  0.48339200  0.75751400  1
  H  460  1  0.94364700  0.52335900  0.75469100  1
  H  461  1  0.85194000  0.45245100  0.81682300  1
  H  462  1  0.81680400  0.55800900  0.85200500  1
  H  469  1  0.16323100  0.55608100  0.20219200  1
  H  478  1  0.20226200  0.45420300  0.16318000  1
  H  479  1  0.25333100  0.52704000  0.06594400  1
  H  480  1  0.25630000  0.48710300  0.06695000  1
  H  481  1  0.06575000  0.48323400  0.25290600  1
  H  482  1  0.06682500  0.52318100  0.25576600  1
  H  483  1  0.15842000  0.45235400  0.19341600  1
  H  484  1  0.19350500  0.55793000  0.15836600  1
  H  491  1  0.84722800  0.45423600  0.20216200  1
  H  500  1  0.80825500  0.55617500  0.16316900  1
  H  501  1  0.75714100  0.48334500  0.06585800  1
  H  502  1  0.75433200  0.52328300  0.06689000  1
  H  503  1  0.94441600  0.52707700  0.25348000  1
  H  504  1  0.94339800  0.48714200  0.25632500  1
  H  505  1  0.85196000  0.55798200  0.19357700  1
  H  506  1  0.81684300  0.45242600  0.15843700  1
  H  513  1  0.16317400  0.45418400  0.80813400  1
  H  522  1  0.20225000  0.55607100  0.84714200  1
  H  523  1  0.25282200  0.48321700  0.94458200  1
  H  524  1  0.25573200  0.52317400  0.94355100  1
  H  525  1  0.06587600  0.52705300  0.75733400  1
  H  526  1  0.06686100  0.48709800  0.75441600  1
  H  527  1  0.15847400  0.55792500  0.81680100  1
  H  528  1  0.19348800  0.45233900  0.85191300  1
  H  539  1  0.36468700  0.17451200  0.96903600  1
  H  540  1  0.46091500  0.29291800  0.88727700  1
  H  541  1  0.42498700  0.31887000  0.92580600  1
  H  544  1  0.38758400  0.12671400  0.93191900  1
  H  545  1  0.44836900  0.13656900  0.97170600  1
  H  546  1  0.42936100  0.09809900  0.96364200  1
  H  547  1  0.40826300  0.12800000  0.98764900  1
  H  558  1  0.64570400  0.83571300  0.96889500  1
  H  559  1  0.54932200  0.71736900  0.88724800  1
  H  560  1  0.58524700  0.69135900  0.92585000  1
  H  563  1  0.62289600  0.88346300  0.93161300  1
  H  564  1  0.56212300  0.87384100  0.97148400  1
  H  565  1  0.58117300  0.91225600  0.96326900  1
  H  566  1  0.60224800  0.88241500  0.98736500  1
  H  577  1  0.64602500  0.17474300  0.04140600  1
  H  578  1  0.54928200  0.29277900  0.12305400  1
  H  579  1  0.58515100  0.31887300  0.08452700  1
  H  582  1  0.62324400  0.12684700  0.07850100  1
  H  583  1  0.56245400  0.13662700  0.03868500  1
  H  584  1  0.58147700  0.09817200  0.04676700  1
  H  585  1  0.60257400  0.12807900  0.02277500  1
  H  596  1  0.36448200  0.83566600  0.04146800  1
  H  597  1  0.46099400  0.71737900  0.12306400  1
  H  598  1  0.42513300  0.69137700  0.08450100  1
  H  601  1  0.38726700  0.88345500  0.07866900  1
  H  602  1  0.44810700  0.87378400  0.03891100  1
  H  603  1  0.42903900  0.91220900  0.04704100  1
  H  604  1  0.40800400  0.88233100  0.02295500  1
  H  615  1  0.96897900  0.36472400  0.17455000  1
  H  616  1  0.88713600  0.46090300  0.29294700  1
  H  617  1  0.92570900  0.42497800  0.31893200  1
  H  620  1  0.93185500  0.38765600  0.12676500  1
  H  621  1  0.97166900  0.44842100  0.13663900  1
  H  622  1  0.96357800  0.42944700  0.09815900  1
  H  623  1  0.98759200  0.40831800  0.12803000  1
  H  634  1  0.96916000  0.64584700  0.83588600  1
  H  635  1  0.88738100  0.54947300  0.71762800  1
  H  636  1  0.92591200  0.58534900  0.69162400  1
  H  639  1  0.93204300  0.62305100  0.88370500  1
  H  640  1  0.97175300  0.56219900  0.87396500  1
  H  641  1  0.96371600  0.58129400  0.91239900  1
  H  642  1  0.98774500  0.60230000  0.88245400  1
  H  653  1  0.04149500  0.64576300  0.17461700  1
  H  654  1  0.12306500  0.54927500  0.29293000  1
  H  655  1  0.08453300  0.58522500  0.31890500  1
  H  658  1  0.07860300  0.62288600  0.12678600  1
  H  659  1  0.03882800  0.56208600  0.13665400  1
  H  660  1  0.04691000  0.58104900  0.09817100  1
  H  661  1  0.02288700  0.60217900  0.12803300  1
  H  672  1  0.04138600  0.36470700  0.83579500  1
  H  673  1  0.12309000  0.46095700  0.71737400  1
  H  674  1  0.08449300  0.42504900  0.69139400  1
  H  677  1  0.07866300  0.38755900  0.88353900  1
  H  678  1  0.03880400  0.44831500  0.87378400  1
  H  679  1  0.04696600  0.42930900  0.91223400  1
  H  680  1  0.02290800  0.40819900  0.88238200  1
  H  691  1  0.17447200  0.96917500  0.36461000  1
  H  692  1  0.29277200  0.88735900  0.46092500  1
  H  693  1  0.31876400  0.92586500  0.42500200  1
  H  696  1  0.12663000  0.93215400  0.38748500  1
  H  697  1  0.13651200  0.97185200  0.44832200  1
  H  698  1  0.09804300  0.96387400  0.42927700  1
  H  699  1  0.12799900  0.98785400  0.40823100  1
  H  710  1  0.83570300  0.96903100  0.64562200  1
  H  711  1  0.71739800  0.88716400  0.54939100  1
  H  712  1  0.69136700  0.92575900  0.58530900  1
  H  715  1  0.88347000  0.93184800  0.62280900  1
  H  716  1  0.87381100  0.97161200  0.56198400  1
  H  717  1  0.91222600  0.96350600  0.58109100  1
  H  718  1  0.88230800  0.98757200  0.60209500  1
  H  729  1  0.17472200  0.04123200  0.64592900  1
  H  730  1  0.29270800  0.12312000  0.54933200  1
  H  731  1  0.31882800  0.08459300  0.58518000  1
  H  734  1  0.12679000  0.07823100  0.62314500  1
  H  735  1  0.13665500  0.03851900  0.56230800  1
  H  736  1  0.09819100  0.04647600  0.58136800  1
  H  737  1  0.12817400  0.02252800  0.60241100  1
  H  748  1  0.83563400  0.04142500  0.36438000  1
  H  749  1  0.71747800  0.12297600  0.46108800  1
  H  750  1  0.69142900  0.08444900  0.42522500  1
  H  753  1  0.88349000  0.07851300  0.38716600  1
  H  754  1  0.87372500  0.03880900  0.44802800  1
  H  755  1  0.91217700  0.04686500  0.42898500  1
  H  756  1  0.88227400  0.02282300  0.40793700  1
  H  767  1  0.17461300  0.36473100  0.04140800  1
  H  768  1  0.29304100  0.46089500  0.12320200  1
  H  769  1  0.31901400  0.42498500  0.08461300  1
  H  772  1  0.12686300  0.38763800  0.07863300  1
  H  773  1  0.13664800  0.44838400  0.03876700  1
  H  774  1  0.09819100  0.42939000  0.04692200  1
  H  775  1  0.12804100  0.40826800  0.02287400  1
  H  786  1  0.83578700  0.64574100  0.04131100  1
  H  787  1  0.71747300  0.54949700  0.12312400  1
  H  788  1  0.69149500  0.58539100  0.08460600  1
  H  791  1  0.88362300  0.62285400  0.07838200  1
  H  792  1  0.87370500  0.56204400  0.03864400  1
  H  793  1  0.91219200  0.58103700  0.04665400  1
  H  794  1  0.88227600  0.60213200  0.02266700  1
  H  805  1  0.17481500  0.64585700  0.96878900  1
  H  806  1  0.29301900  0.54916900  0.88725700  1
  H  807  1  0.31905100  0.58509400  0.92579600  1
  H  810  1  0.12699000  0.62305900  0.93164500  1
  H  811  1  0.13666400  0.56224100  0.97143900  1
  H  812  1  0.09823100  0.58128200  0.96328900  1
  H  813  1  0.12809400  0.60235200  0.98735700  1
  H  824  1  0.83583400  0.36462000  0.96901200  1
  H  825  1  0.71751000  0.46102400  0.88734900  1
  H  826  1  0.69149500  0.42510400  0.92590700  1
  H  829  1  0.88362800  0.38747800  0.93184000  1
  H  830  1  0.87382100  0.44826500  0.97164200  1
  H  831  1  0.91228100  0.42925400  0.96354300  1
  H  832  1  0.88240000  0.40816000  0.98757200  1
  H  843  1  0.36446900  0.96899400  0.83571600  1
  H  844  1  0.46113300  0.88744300  0.71752000  1
  H  845  1  0.42526200  0.92597600  0.69148800  1
  H  848  1  0.38724500  0.93183500  0.88355700  1
  H  849  1  0.44807500  0.97159700  0.87382900  1
  H  850  1  0.42902000  0.96350900  0.91226600  1
  H  851  1  0.40796900  0.98755000  0.88236500  1
  H  862  1  0.64582500  0.96879200  0.17477500  1
  H  863  1  0.54918600  0.88723300  0.29298500  1
  H  864  1  0.58512100  0.92580300  0.31904100  1
  H  867  1  0.62300200  0.93161800  0.12694700  1
  H  868  1  0.56223900  0.97148600  0.13668300  1
  H  869  1  0.58122700  0.96331600  0.09823100  1
  H  870  1  0.60236200  0.98736000  0.12807300  1
  H  881  1  0.64587700  0.04132700  0.83569100  1
  H  882  1  0.54941100  0.12316200  0.71755900  1
  H  883  1  0.58526900  0.08460300  0.69149500  1
  H  886  1  0.62307800  0.07843500  0.88355200  1
  H  887  1  0.56227800  0.03864900  0.87376400  1
  H  888  1  0.58132400  0.04670500  0.91221400  1
  H  889  1  0.60239200  0.02271000  0.88228600  1
  H  900  1  0.36460300  0.04131900  0.17455500  1
  H  901  1  0.46090000  0.12308700  0.29287800  1
  H  902  1  0.42501000  0.08455600  0.31885100  1
  H  905  1  0.38745300  0.07843200  0.12675500  1
  H  906  1  0.44828000  0.03868900  0.13653100  1
  H  907  1  0.42921700  0.04674300  0.09808700  1
  H  908  1  0.40817900  0.02271400  0.12801000  1
  H  919  1  0.96886800  0.17473200  0.64580000  1
  H  920  1  0.88720600  0.29296500  0.54926700  1
  H  921  1  0.92575400  0.31900400  0.58518000  1
  H  924  1  0.93167500  0.12692600  0.62297500  1
  H  925  1  0.97154300  0.13661200  0.56220900  1
  H  926  1  0.96336800  0.09817900  0.58124200  1
  H  927  1  0.98742200  0.12803800  0.60234000  1
  H  938  1  0.96908300  0.83569800  0.36433800  1
  H  939  1  0.88748500  0.71760100  0.46107600  1
  H  940  1  0.92600100  0.69153200  0.42522000  1
  H  943  1  0.93198900  0.88357400  0.38708000  1
  H  944  1  0.97169100  0.87384900  0.44794900  1
  H  945  1  0.96364900  0.91228300  0.42886400  1
  H  946  1  0.98767900  0.88234800  0.40784800  1
  H  957  1  0.04140300  0.17457300  0.36469700  1
  H  958  1  0.12313400  0.29304100  0.46085600  1
  H  959  1  0.08457500  0.31896400  0.42490100  1
  H  962  1  0.07858300  0.12682700  0.38758900  1
  H  963  1  0.03878100  0.13657800  0.44838100  1
  H  964  1  0.04691400  0.09813200  0.42935300  1
  H  965  1  0.02285000  0.12800000  0.40827300  1
  H  976  1  0.04106500  0.83598500  0.64551600  1
  H  977  1  0.12318100  0.71757200  0.54964100  1
  H  978  1  0.08461000  0.69158700  0.58554600  1
  H  981  1  0.07823700  0.88374200  0.62264100  1
  H  982  1  0.03846200  0.87392300  0.56185300  1
  H  983  1  0.04649900  0.91237000  0.58092800  1
  H  984  1  0.02249500  0.88242200  0.60196400  1
  H  995  1  0.63753300  0.83958700  0.02605000  1
  H  996  1  0.55733200  0.72330200  0.12559900  1
  H  997  1  0.59198100  0.69666000  0.08654200  1
  H  1000  1  0.58141000  0.88594000  0.08034000  1
  H  1001  1  0.64447000  0.89471400  0.04435600  1
  H  1002  1  0.62191700  0.92459900  0.06621800  1
  H  1003  1  0.64199500  0.89210000  0.08806200  1
  H  1014  1  0.37250400  0.17088300  0.02622200  1
  H  1015  1  0.45311800  0.28706400  0.12554500  1
  H  1016  1  0.41842600  0.31380000  0.08647300  1
  H  1019  1  0.42866400  0.12447400  0.08042000  1
  H  1020  1  0.36543800  0.11585300  0.04466500  1
  H  1021  1  0.38806300  0.08587200  0.06631800  1
  H  1022  1  0.36814800  0.11834000  0.08836600  1
  H  1033  1  0.37264200  0.83954700  0.98432200  1
  H  1034  1  0.45299700  0.72335100  0.88477800  1
  H  1035  1  0.41836200  0.69663200  0.92386800  1
  H  1038  1  0.42874800  0.88593700  0.93006000  1
  H  1039  1  0.36559900  0.89462700  0.96591600  1
  H  1040  1  0.38819700  0.92456500  0.94417400  1
  H  1041  1  0.36820200  0.89209100  0.92221400  1
  H  1052  1  0.63771600  0.17086800  0.98425500  1
  H  1053  1  0.55738400  0.28715000  0.88482500  1
  H  1054  1  0.59201100  0.31382000  0.92387700  1
  H  1057  1  0.58153400  0.12454200  0.93000800  1
  H  1058  1  0.64473000  0.11581100  0.96577800  1
  H  1059  1  0.62207700  0.08588100  0.94408200  1
  H  1060  1  0.64204700  0.11834200  0.92208000  1
  H  1071  1  0.02633100  0.63785500  0.83946800  1
  H  1072  1  0.12561900  0.55723300  0.72325000  1
  H  1073  1  0.08655900  0.59190500  0.69655600  1
  H  1076  1  0.08053300  0.58168200  0.88586600  1
  H  1077  1  0.04460300  0.64478600  0.89457000  1
  H  1078  1  0.06639100  0.62222100  0.92449600  1
  H  1079  1  0.08830800  0.64225000  0.89201400  1
  H  1090  1  0.02616100  0.37244200  0.17070400  1
  H  1091  1  0.12544800  0.45302400  0.28693800  1
  H  1092  1  0.08640100  0.41839700  0.31361500  1
  H  1095  1  0.08039300  0.42857200  0.12430600  1
  H  1096  1  0.04455200  0.36541100  0.11563100  1
  H  1097  1  0.06629900  0.38799900  0.08568900  1
  H  1098  1  0.08825500  0.36802200  0.11817600  1
  H  1109  1  0.98420800  0.37258800  0.83946800  1
  H  1110  1  0.88480300  0.45317700  0.72330200  1
  H  1111  1  0.92382800  0.41847100  0.69658800  1
  H  1114  1  0.93007300  0.42880400  0.88589300  1
  H  1115  1  0.96587700  0.36562400  0.89457300  1
  H  1116  1  0.94417600  0.38824900  0.92452000  1
  H  1117  1  0.92217400  0.36826600  0.89206600  1
  H  1128  1  0.98433600  0.63750800  0.17079100  1
  H  1129  1  0.88475600  0.55744800  0.28712800  1
  H  1130  1  0.92385800  0.59209000  0.31379800  1
  H  1133  1  0.93005000  0.58129700  0.12454300  1
  H  1134  1  0.96591100  0.64442100  0.11569000  1
  H  1135  1  0.94418100  0.62173900  0.08580500  1
  H  1136  1  0.92220900  0.64181700  0.11822200  1
  H  1147  1  0.83950800  0.02621500  0.63791100  1
  H  1148  1  0.72333400  0.12544700  0.55716100  1
  H  1149  1  0.69664200  0.08642400  0.59180800  1
  H  1152  1  0.88596000  0.08041700  0.58178900  1
  H  1153  1  0.89456800  0.04461700  0.64498200  1
  H  1154  1  0.92453000  0.06635600  0.62241600  1
  H  1155  1  0.89201100  0.08831800  0.64233900  1
  H  1166  1  0.17091000  0.02636200  0.37237300  1
  H  1167  1  0.28705100  0.12556900  0.45318500  1
  H  1168  1  0.31380200  0.08651300  0.41848600  1
  H  1171  1  0.12446300  0.08051900  0.42854200  1
  H  1172  1  0.11586700  0.04472800  0.36533400  1
  H  1173  1  0.08587900  0.06639700  0.38793200  1
  H  1174  1  0.11835200  0.08843100  0.36800900  1
  H  1185  1  0.83951800  0.98428700  0.37264700  1
  H  1186  1  0.72331200  0.88476100  0.45300900  1
  H  1187  1  0.69659800  0.92385000  0.41837000  1
  H  1190  1  0.88589800  0.93004800  0.42878200  1
  H  1191  1  0.89458500  0.96585000  0.36560100  1
  H  1192  1  0.92453000  0.94414900  0.38822700  1
  H  1193  1  0.89206800  0.92214700  0.36825700  1
  H  1204  1  0.17098500  0.98402700  0.63814400  1
  H  1205  1  0.28712100  0.88496300  0.55714900  1
  H  1206  1  0.31385200  0.92398100  0.59176600  1
  H  1209  1  0.12452800  0.92992400  0.58193700  1
  H  1210  1  0.11604000  0.96538700  0.64535300  1
  H  1211  1  0.08597300  0.94395100  0.62263800  1
  H  1212  1  0.11841400  0.92169700  0.64237400  1
  H  1223  1  0.83941900  0.63798800  0.98411900  1
  H  1224  1  0.72326700  0.55723000  0.88486900  1
  H  1225  1  0.69653400  0.59189500  0.92391000  1
  H  1228  1  0.88584600  0.58178900  0.92997600  1
  H  1229  1  0.89444900  0.64503900  0.96569400  1
  H  1230  1  0.92444900  0.62239100  0.94409200  1
  H  1231  1  0.89200400  0.64229000  0.92199400  1
  H  1242  1  0.17081400  0.37246900  0.98422800  1
  H  1243  1  0.28701400  0.45300200  0.88484700  1
  H  1244  1  0.31371600  0.41839900  0.92390700  1
  H  1247  1  0.12439800  0.42856000  0.92997100  1
  H  1248  1  0.11575000  0.36540100  0.96582500  1
  H  1249  1  0.08579100  0.38798200  0.94409200  1
  H  1250  1  0.11827200  0.36801400  0.92212000  1
  H  1261  1  0.83958200  0.37263500  0.02619400  1
  H  1262  1  0.72329500  0.45306100  0.12557800  1
  H  1263  1  0.69665000  0.41835000  0.08652200  1
  H  1266  1  0.88594000  0.42887100  0.08036300  1
  H  1267  1  0.89470100  0.36574700  0.04448200  1
  H  1268  1  0.92461700  0.38837700  0.06622100  1
  H  1269  1  0.89218000  0.36832600  0.08818700  1
  H  1280  1  0.17074900  0.63733500  0.02588600  1
  H  1281  1  0.28708300  0.55749200  0.12563800  1
  H  1282  1  0.31375300  0.59214000  0.08654100  1
  H  1285  1  0.12450700  0.58119000  0.08024300  1
  H  1286  1  0.11561600  0.64422000  0.04423700  1
  H  1287  1  0.08576600  0.62160500  0.06608400  1
  H  1288  1  0.11821200  0.64175300  0.08794400  1
  H  1299  1  0.63749600  0.02592600  0.17081100  1
  H  1300  1  0.55737600  0.12552800  0.28708800  1
  H  1301  1  0.59200400  0.08647300  0.31376000  1
  H  1304  1  0.58136300  0.08023700  0.12449700  1
  H  1305  1  0.64450500  0.04439300  0.11572500  1
  H  1306  1  0.62188700  0.06617300  0.08582700  1
  H  1307  1  0.64190100  0.08809300  0.11831500  1
  H  1318  1  0.37270900  0.02615900  0.83946300  1
  H  1319  1  0.45308600  0.12569100  0.72327500  1
  H  1320  1  0.41840700  0.08659200  0.69654300  1
  H  1323  1  0.42888100  0.08036300  0.88584800  1
  H  1324  1  0.36570800  0.04454500  0.89454300  1
  H  1325  1  0.38835000  0.06622000  0.92449800  1
  H  1326  1  0.36836000  0.08824900  0.89206600  1
  H  1337  1  0.37239200  0.98413400  0.17087900  1
  H  1338  1  0.45306400  0.88481500  0.28704600  1
  H  1339  1  0.41844400  0.92390700  0.31377800  1
  H  1342  1  0.42846100  0.92988000  0.12443800  1
  H  1343  1  0.36529700  0.96573800  0.11583300  1
  H  1344  1  0.38785300  0.94400300  0.08586100  1
  H  1345  1  0.36791000  0.92203600  0.11836100  1
  H  1356  1  0.63803000  0.98414400  0.83950500  1
  H  1357  1  0.55720100  0.88493400  0.72338100  1
  H  1358  1  0.59182600  0.92394900  0.69666700  1
  H  1361  1  0.58191700  0.92994900  0.88597700  1
  H  1362  1  0.64512000  0.96574300  0.89455300  1
  H  1363  1  0.62256200  0.94401800  0.92453300  1
  H  1364  1  0.64246800  0.92204100  0.89201400  1
  H  1375  1  0.02623700  0.83945100  0.37264500  1
  H  1376  1  0.12564700  0.72324000  0.45313500  1
  H  1377  1  0.08660700  0.69654300  0.41843900  1
  H  1380  1  0.08033200  0.88581100  0.42895000  1
  H  1381  1  0.04458900  0.89455000  0.36574000  1
  H  1382  1  0.06619700  0.92449800  0.38845200  1
  H  1383  1  0.08829100  0.89211000  0.36845400  1
  H  1394  1  0.02601000  0.17078800  0.63750600  1
  H  1395  1  0.12552900  0.28718500  0.55745300  1
  H  1396  1  0.08645800  0.31380700  0.59210000  1
  H  1399  1  0.08028400  0.12454500  0.58128900  1
  H  1400  1  0.04454900  0.11572600  0.64449000  1
  H  1401  1  0.06623400  0.08582800  0.62178100  1
  H  1402  1  0.08824600  0.11826300  0.64178300  1
  H  1413  1  0.98381700  0.83942100  0.63829200  1
  H  1414  1  0.88500000  0.72326000  0.55702300  1
  H  1415  1  0.92400100  0.69655800  0.59174200  1
  H  1418  1  0.92975900  0.88591000  0.58206300  1
  H  1419  1  0.96539000  0.89442200  0.64537700  1
  H  1420  1  0.94380800  0.92445100  0.62275200  1
  H  1421  1  0.92169200  0.89196700  0.64256600  1
  H  1432  1  0.98425000  0.17078900  0.37269900  1
  H  1433  1  0.88476800  0.28709300  0.45295200  1
  H  1434  1  0.92384500  0.31377300  0.41827800  1
  H  1437  1  0.92996100  0.12447900  0.42885400  1
  H  1438  1  0.96590200  0.11569600  0.36576700  1
  H  1439  1  0.94410200  0.08580100  0.38836300  1
  H  1440  1  0.92219600  0.11826900  0.36829600  1
  C  1  1  0.32320700  0.34897400  0.00558600  1
  C  2  1  0.31174300  0.36359400  0.03565800  1
  C  3  1  0.28887600  0.39005800  0.03690900  1
  C  4  1  0.27818600  0.40466100  0.00664200  1
  C  5  1  0.28580500  0.38871600  0.97610900  1
  C  6  1  0.30797800  0.36162400  0.97633200  1
  C  9  1  0.34899400  0.32318700  0.00475900  1
  C  10  1  0.36167100  0.30799500  0.03402200  1
  C  11  1  0.38876100  0.28582300  0.03425200  1
  C  12  1  0.40469600  0.27818600  0.00372100  1
  C  13  1  0.39007100  0.28883600  0.97344900  1
  C  14  1  0.36358400  0.31168400  0.97468800  1
  C  23  1  0.68712500  0.66139900  0.00561900  1
  C  24  1  0.69863500  0.64680900  0.03568700  1
  C  25  1  0.72149700  0.62033900  0.03692200  1
  C  26  1  0.73215200  0.60572200  0.00665000  1
  C  27  1  0.72449600  0.62164700  0.97611900  1
  C  28  1  0.70231800  0.64873200  0.97635400  1
  C  31  1  0.66133000  0.68717900  0.00479800  1
  C  32  1  0.64868800  0.70241200  0.03405600  1
  C  33  1  0.62158300  0.72457000  0.03428500  1
  C  34  1  0.60562300  0.73217000  0.00375500  1
  C  35  1  0.62022800  0.72149500  0.97348600  1
  C  36  1  0.64670000  0.69863700  0.97473000  1
  C  45  1  0.68718900  0.34902600  0.00479100  1
  C  46  1  0.69868700  0.36363600  0.97472700  1
  C  47  1  0.72155200  0.39010500  0.97349600  1
  C  48  1  0.73222600  0.40469900  0.00377200  1
  C  49  1  0.72458500  0.38875600  0.03429600  1
  C  50  1  0.70240700  0.36166800  0.03405700  1
  C  53  1  0.66139200  0.32324900  0.00560400  1
  C  54  1  0.64872700  0.30804700  0.97633900  1
  C  55  1  0.62163200  0.28588000  0.97610400  1
  C  56  1  0.60569400  0.27823800  0.00663300  1
  C  57  1  0.62030000  0.28890500  0.03690500  1
  C  58  1  0.64677400  0.31176300  0.03567100  1
  C  67  1  0.32324900  0.66130500  0.00473700  1
  C  68  1  0.31182700  0.64665300  0.97466300  1
  C  69  1  0.28897200  0.62017600  0.97341400  1
  C  70  1  0.27826500  0.60559500  0.00368600  1
  C  71  1  0.28582500  0.62158300  0.03421200  1
  C  72  1  0.30798100  0.64869000  0.03398500  1
  C  75  1  0.34902800  0.68709700  0.00557500  1
  C  76  1  0.36165600  0.70235300  0.97632400  1
  C  77  1  0.38874300  0.72453600  0.97610700  1
  C  78  1  0.40469400  0.73213700  0.00663800  1
  C  79  1  0.39011300  0.72141600  0.03690600  1
  C  80  1  0.36365300  0.69854300  0.03565200  1
  C  89  1  0.00557400  0.32319700  0.34893700  1
  C  90  1  0.03564600  0.31173300  0.36355500  1
  C  91  1  0.03688900  0.28888600  0.39003600  1
  C  92  1  0.00662100  0.27821600  0.40465200  1
  C  93  1  0.97608900  0.28582300  0.38870100  1
  C  94  1  0.97631700  0.30797600  0.36159200  1
  C  97  1  0.00474600  0.34897100  0.32314000  1
  C  98  1  0.03400100  0.36160400  0.30789200  1
  C  99  1  0.03422600  0.38869400  0.28571600  1
  C  100  1  0.00369800  0.40464900  0.27810500  1
  C  101  1  0.97342700  0.39005600  0.28880400  1
  C  102  1  0.97467500  0.36359900  0.31168400  1
  C  111  1  0.00559500  0.68718100  0.66139900  1
  C  112  1  0.03565200  0.69874900  0.64683100  1
  C  113  1  0.03687000  0.72159400  0.62034400  1
  C  114  1  0.00659200  0.73221200  0.60571200  1
  C  115  1  0.97606500  0.72450100  0.62161700  1
  C  116  1  0.97631200  0.70231800  0.64869700  1
  C  119  1  0.00480800  0.66139400  0.68718900  1
  C  120  1  0.03409200  0.64870000  0.70233300  1
  C  121  1  0.03434700  0.62162200  0.72452100  1
  C  122  1  0.00381900  0.60570700  0.73221400  1
  C  123  1  0.97354100  0.62033200  0.72159900  1
  C  124  1  0.97475200  0.64681900  0.69875400  1
  C  133  1  0.00484500  0.68712500  0.34901100  1
  C  134  1  0.97478400  0.69864000  0.36361600  1
  C  135  1  0.97356000  0.72149500  0.39009600  1
  C  136  1  0.00383900  0.73215200  0.40469400  1
  C  137  1  0.03436500  0.72449100  0.38876100  1
  C  138  1  0.03411700  0.70231300  0.36167300  1
  C  141  1  0.00565000  0.66133700  0.32322400  1
  C  142  1  0.97638100  0.64869000  0.30801500  1
  C  143  1  0.97613600  0.62160300  0.28583800  1
  C  144  1  0.00665600  0.60564200  0.27820800  1
  C  145  1  0.03693400  0.62023600  0.28887600  1
  C  146  1  0.03571100  0.64671500  0.31173100  1
  C  155  1  0.00471200  0.32324100  0.66136000  1
  C  156  1  0.97464300  0.31178500  0.64672700  1
  C  157  1  0.97339700  0.28893300  0.62024800  1
  C  158  1  0.00367100  0.27824600  0.60565500  1
  C  159  1  0.03419600  0.28583800  0.62162200  1
  C  160  1  0.03396700  0.30800000  0.64872000  1
  C  163  1  0.00554700  0.34902800  0.68714400  1
  C  164  1  0.97629200  0.36170300  0.70235300  1
  C  165  1  0.97607400  0.38879300  0.72452800  1
  C  166  1  0.00661200  0.40472800  0.73214700  1
  C  167  1  0.03687700  0.39010800  0.72148000  1
  C  168  1  0.03562400  0.36362600  0.69863000  1
  C  177  1  0.34896900  0.00559900  0.32321600  1
  C  178  1  0.36356700  0.03566100  0.31170100  1
  C  179  1  0.39004400  0.03688800  0.28884600  1
  C  180  1  0.40465400  0.00661600  0.27818900  1
  C  181  1  0.38872800  0.97608700  0.28585500  1
  C  182  1  0.36164400  0.97632700  0.30803500  1
  C  185  1  0.32317400  0.00479800  0.34899900  1
  C  186  1  0.30801500  0.03407500  0.36168600  1
  C  187  1  0.28582500  0.03432000  0.38876300  1
  C  188  1  0.27815200  0.00379200  0.40468400  1
  C  189  1  0.28877900  0.97351600  0.39005800  1
  C  190  1  0.31162700  0.97473700  0.36357400  1
  C  199  1  0.66136500  0.00559100  0.68712500  1
  C  200  1  0.64675700  0.03566300  0.69860500  1
  C  201  1  0.62030500  0.03690800  0.72148700  1
  C  202  1  0.60570400  0.00663900  0.73217900  1
  C  203  1  0.62163500  0.97610700  0.72453800  1
  C  204  1  0.64871700  0.97633200  0.70235500  1
  C  207  1  0.68714400  0.00477100  0.66133300  1
  C  208  1  0.70237500  0.03402900  0.64869200  1
  C  209  1  0.72453300  0.03426200  0.62158800  1
  C  210  1  0.73214500  0.00373300  0.60563500  1
  C  211  1  0.72147300  0.97346100  0.62023600  1
  C  212  1  0.69860500  0.97470200  0.64670500  1
  C  221  1  0.34907500  0.00480800  0.68712900  1
  C  222  1  0.36367800  0.97474400  0.69864200  1
  C  223  1  0.39016000  0.97351800  0.72149500  1
  C  224  1  0.40475800  0.00379500  0.73215700  1
  C  225  1  0.38881700  0.03432100  0.72451100  1
  C  226  1  0.36173800  0.03407900  0.70232600  1
  C  229  1  0.32329100  0.00561600  0.66134000  1
  C  230  1  0.30811400  0.97634400  0.64866300  1
  C  231  1  0.28592900  0.97610400  0.62158300  1
  C  232  1  0.27824300  0.00663200  0.60567200  1
  C  233  1  0.28890100  0.03690700  0.62028000  1
  C  234  1  0.31177000  0.03567900  0.64674400  1
  C  243  1  0.66129500  0.00472900  0.32325800  1
  C  244  1  0.64666000  0.97465500  0.31181700  1
  C  245  1  0.62019100  0.97340500  0.28895200  1
  C  246  1  0.60559500  0.00367400  0.27826300  1
  C  247  1  0.62156300  0.03420300  0.28584700  1
  C  248  1  0.64866300  0.03398000  0.30800800  1
  C  251  1  0.68708500  0.00556600  0.34903800  1
  C  252  1  0.70232800  0.97631200  0.36167100  1
  C  253  1  0.72451100  0.97608400  0.38875300  1
  C  254  1  0.73212800  0.00661400  0.40470300  1
  C  255  1  0.72141800  0.03688500  0.39012300  1
  C  256  1  0.69854600  0.03564000  0.36366100  1
  C  265  1  0.81934500  0.84526300  0.50462500  1
  C  266  1  0.80366400  0.85786100  0.53372800  1
  C  267  1  0.78140500  0.88501800  0.53382100  1
  C  268  1  0.77467300  0.90144500  0.50338900  1
  C  269  1  0.78540000  0.88679500  0.47317000  1
  C  270  1  0.80815100  0.86011800  0.47451500  1
  C  273  1  0.84529000  0.81939400  0.50563200  1
  C  274  1  0.86013800  0.80819600  0.53574500  1
  C  275  1  0.88690400  0.78554300  0.53707500  1
  C  276  1  0.90160600  0.77491300  0.50685000  1
  C  277  1  0.88515600  0.78158800  0.47641600  1
  C  278  1  0.85794000  0.80377000  0.47652200  1
  C  287  1  0.19095600  0.16513400  0.50470700  1
  C  288  1  0.20658100  0.15250100  0.53382400  1
  C  289  1  0.22878000  0.12529800  0.53394000  1
  C  290  1  0.23549800  0.10885800  0.50351000  1
  C  291  1  0.22484300  0.12353300  0.47328100  1
  C  292  1  0.20216800  0.15027800  0.47460100  1
  C  295  1  0.16508100  0.19107200  0.50570100  1
  C  296  1  0.15022200  0.20227500  0.53580400  1
  C  297  1  0.12354500  0.22503000  0.53713700  1
  C  298  1  0.10891600  0.23577000  0.50691500  1
  C  299  1  0.12534300  0.22901400  0.47648700  1
  C  300  1  0.15249600  0.20675100  0.47659400  1
  C  309  1  0.19098700  0.84530300  0.50570100  1
  C  310  1  0.20659300  0.85795300  0.47658100  1
  C  311  1  0.22880900  0.88514100  0.47646800  1
  C  312  1  0.23556600  0.90155400  0.50690200  1
  C  313  1  0.22492900  0.88686400  0.53713200  1
  C  314  1  0.20222500  0.86014300  0.53580400  1
  C  317  1  0.16509400  0.81938000  0.50471400  1
  C  318  1  0.15026700  0.80812100  0.47461300  1
  C  319  1  0.12357500  0.78538000  0.47329100  1
  C  320  1  0.10892100  0.77468300  0.50351500  1
  C  321  1  0.12530400  0.78150900  0.53395000  1
  C  322  1  0.15246000  0.80376600  0.53383400  1
  C  331  1  0.81935200  0.16512200  0.50564900  1
  C  332  1  0.80367700  0.15251400  0.47654900  1
  C  333  1  0.78146900  0.12531700  0.47645000  1
  C  334  1  0.77481400  0.10884900  0.50688000  1
  C  335  1  0.78549900  0.12351800  0.53710400  1
  C  336  1  0.80818300  0.15025400  0.53576200  1
  C  339  1  0.84524800  0.19104100  0.50463800  1
  C  340  1  0.86011100  0.20221900  0.47452400  1
  C  341  1  0.88681300  0.22494500  0.47318500  1
  C  342  1  0.90144500  0.23569400  0.50340400  1
  C  343  1  0.88500800  0.22897500  0.53383600  1
  C  344  1  0.85783900  0.20673000  0.53373700  1
  C  353  1  0.50464000  0.81932300  0.84525100  1
  C  354  1  0.53372800  0.80361700  0.85784400  1
  C  355  1  0.53380900  0.78138800  0.88502300  1
  C  356  1  0.50337400  0.77470000  0.90146700  1
  C  357  1  0.47316000  0.78543500  0.88681300  1
  C  358  1  0.47452000  0.80816800  0.86011800  1
  C  361  1  0.50567400  0.84524300  0.81936500  1
  C  362  1  0.53579400  0.86011100  0.80821300  1
  C  363  1  0.53715100  0.88684500  0.78552600  1
  C  364  1  0.50693400  0.90153900  0.77485600  1
  C  365  1  0.47649700  0.88508200  0.78150400  1
  C  366  1  0.47658100  0.85787100  0.80369100  1
  C  375  1  0.50469000  0.19099500  0.16510500  1
  C  376  1  0.53380400  0.20663900  0.15249100  1
  C  377  1  0.53392300  0.22884100  0.12529100  1
  C  378  1  0.50349800  0.23554400  0.10883600  1
  C  379  1  0.47326900  0.22487500  0.12349800  1
  C  380  1  0.47458600  0.20219300  0.15023700  1
  C  383  1  0.50568100  0.16511100  0.19103200  1
  C  384  1  0.53578700  0.15025100  0.20223500  1
  C  385  1  0.53711700  0.12355700  0.22497000  1
  C  386  1  0.50689000  0.10890500  0.23567000  1
  C  387  1  0.47646300  0.12533900  0.22893100  1
  C  388  1  0.47657100  0.15250700  0.20668900  1
  C  397  1  0.50571600  0.19108000  0.84523100  1
  C  398  1  0.47660600  0.20672200  0.85785900  1
  C  399  1  0.47650000  0.22895900  0.88503300  1
  C  400  1  0.50693700  0.23571500  0.90144500  1
  C  401  1  0.53715900  0.22502100  0.88678000  1
  C  402  1  0.53582100  0.20228900  0.86008400  1
  C  405  1  0.50471900  0.16516600  0.81933300  1
  C  406  1  0.47461300  0.15031500  0.80811700  1
  C  407  1  0.47328800  0.12359000  0.78541500  1
  C  408  1  0.50351300  0.10892800  0.77473500  1
  C  409  1  0.53394500  0.12535500  0.78147700  1
  C  410  1  0.53383100  0.15254000  0.80369600  1
  C  419  1  0.50561700  0.81927600  0.16518500  1
  C  420  1  0.47652400  0.80358300  0.15258100  1
  C  421  1  0.47643500  0.78135500  0.12539900  1
  C  422  1  0.50687500  0.77468100  0.10895100  1
  C  423  1  0.53709000  0.78540700  0.12360500  1
  C  424  1  0.53573500  0.80812100  0.15031600  1
  C  427  1  0.50459300  0.84518900  0.19108100  1
  C  428  1  0.47447500  0.86005600  0.20223800  1
  C  429  1  0.47312300  0.88678500  0.22493200  1
  C  430  1  0.50334200  0.90145500  0.23562900  1
  C  431  1  0.53377700  0.88499800  0.22897100  1
  C  432  1  0.53368600  0.85779400  0.20677100  1
  C  441  1  0.84530000  0.50473400  0.81943400  1
  C  442  1  0.85793800  0.53384900  0.80381300  1
  C  443  1  0.88511200  0.53396200  0.78158000  1
  C  444  1  0.90153900  0.50353000  0.77483400  1
  C  445  1  0.88686200  0.47330300  0.78549900  1
  C  446  1  0.86014300  0.47462800  0.80820600  1
  C  449  1  0.81939200  0.50572500  0.84534000  1
  C  450  1  0.80817800  0.53583100  0.86019500  1
  C  451  1  0.78545900  0.53715400  0.88690400  1
  C  452  1  0.77476000  0.50692900  0.90155600  1
  C  453  1  0.78150900  0.47650000  0.88512700  1
  C  454  1  0.80374300  0.47661300  0.85795000  1
  C  463  1  0.16515400  0.50463300  0.19098700  1
  C  464  1  0.15256500  0.53372300  0.20668900  1
  C  465  1  0.12535000  0.53381700  0.22887400  1
  C  466  1  0.10888400  0.50338400  0.23553200  1
  C  467  1  0.12353800  0.47316500  0.22481900  1
  C  468  1  0.15025800  0.47451700  0.20211500  1
  C  471  1  0.19108400  0.50565600  0.16510900  1
  C  472  1  0.20223500  0.53577000  0.15023200  1
  C  473  1  0.22500000  0.53712200  0.12356300  1
  C  474  1  0.23579200  0.50690500  0.10895400  1
  C  475  1  0.22905700  0.47647500  0.12538300  1
  C  476  1  0.20680300  0.47656400  0.15254200  1
  C  485  1  0.84525100  0.50570600  0.19106600  1
  C  486  1  0.85784400  0.47659900  0.20673800  1
  C  487  1  0.88500300  0.47649200  0.22899500  1
  C  488  1  0.90141600  0.50692400  0.23577100  1
  C  489  1  0.88679000  0.53714400  0.22501900  1
  C  490  1  0.86011600  0.53580900  0.20225900  1
  C  493  1  0.81936200  0.50470400  0.16514200  1
  C  494  1  0.80817600  0.47459900  0.15027100  1
  C  495  1  0.78546700  0.47326900  0.12355400  1
  C  496  1  0.77475200  0.50349300  0.10891300  1
  C  497  1  0.78148700  0.53392300  0.12534600  1
  C  498  1  0.80370400  0.53381200  0.15253500  1
  C  507  1  0.16515300  0.50564400  0.81928600  1
  C  508  1  0.15254500  0.47655200  0.80360000  1
  C  509  1  0.12536300  0.47646300  0.78137300  1
  C  510  1  0.10893500  0.50690000  0.77466300  1
  C  511  1  0.12359000  0.53711700  0.78539700  1
  C  512  1  0.15029900  0.53576200  0.80811400  1
  C  515  1  0.19105300  0.50462000  0.84519400  1
  C  516  1  0.20219400  0.47450000  0.86007100  1
  C  517  1  0.22489800  0.47314000  0.88679000  1
  C  518  1  0.23561600  0.50335700  0.90145000  1
  C  519  1  0.22896900  0.53379200  0.88498800  1
  C  520  1  0.20676100  0.53370800  0.85778900  1
  C  529  1  0.44617900  0.24354500  0.89698500  1
  C  530  1  0.42348700  0.22473300  0.91587800  1
  C  531  1  0.40043700  0.24058100  0.93735100  1
  C  532  1  0.40116300  0.27529900  0.94235200  1
  C  533  1  0.42225800  0.29404500  0.92174600  1
  C  534  1  0.44365000  0.27851300  0.89889600  1
  C  536  1  0.38091600  0.18782100  0.95509100  1
  C  537  1  0.40525000  0.17205500  0.93583300  1
  C  543  1  0.42476000  0.12450500  0.96655400  1
  C  548  1  0.56408800  0.76669100  0.89693600  1
  C  549  1  0.58681000  0.78548200  0.91583300  1
  C  550  1  0.60983000  0.76963700  0.93734800  1
  C  551  1  0.60905900  0.73490900  0.94235900  1
  C  552  1  0.58800100  0.71617000  0.92172900  1
  C  553  1  0.56657000  0.73173200  0.89895100  1
  C  555  1  0.62943200  0.82240300  0.95499400  1
  C  556  1  0.60514600  0.83817300  0.93568400  1
  C  562  1  0.58574200  0.88585600  0.96627000  1
  C  567  1  0.56422900  0.24348900  0.11338800  1
  C  568  1  0.58700200  0.22477900  0.09449100  1
  C  569  1  0.61001800  0.24070700  0.07303800  1
  C  570  1  0.60917800  0.27543200  0.06801300  1
  C  571  1  0.58797900  0.29406200  0.08860400  1
  C  572  1  0.56665200  0.27847300  0.11146900  1
  C  574  1  0.62976100  0.18799900  0.05536400  1
  C  575  1  0.60545900  0.17215700  0.07460000  1
  C  581  1  0.58606500  0.12457900  0.04385800  1
  C  586  1  0.44613400  0.76673500  0.11344900  1
  C  587  1  0.42339000  0.78549100  0.09455700  1
  C  588  1  0.40038200  0.76963000  0.07304600  1
  C  589  1  0.40121800  0.73491900  0.06802400  1
  C  590  1  0.42234500  0.71619000  0.08859700  1
  C  591  1  0.44369400  0.73175900  0.11146100  1
  C  593  1  0.38075100  0.82237100  0.05537900  1
  C  594  1  0.40503200  0.83816100  0.07468500  1
  C  600  1  0.42447800  0.88580400  0.04407100  1
  C  605  1  0.89691900  0.44618100  0.24362500  1
  C  606  1  0.91583800  0.42351200  0.22480100  1
  C  607  1  0.93731100  0.40045600  0.24064600  1
  C  608  1  0.94229700  0.40119800  0.27537800  1
  C  609  1  0.92165000  0.42224800  0.29410700  1
  C  610  1  0.89875800  0.44360000  0.27859200  1
  C  612  1  0.95505900  0.38096800  0.18786700  1
  C  613  1  0.93579100  0.40529900  0.17211200  1
  C  619  1  0.96650200  0.42482400  0.12456000  1
  C  624  1  0.89705200  0.56428100  0.76699000  1
  C  625  1  0.91596700  0.58700200  0.78574600  1
  C  626  1  0.93745200  0.61002300  0.76987000  1
  C  627  1  0.94245300  0.60924200  0.73515600  1
  C  628  1  0.92185300  0.58811700  0.71644700  1
  C  629  1  0.89900000  0.56675500  0.73201400  1
  C  631  1  0.95520500  0.62960500  0.82260100  1
  C  632  1  0.93593400  0.60530400  0.83839800  1
  C  638  1  0.96663100  0.58583800  0.88598200  1
  C  643  1  0.11344500  0.56409000  0.24358000  1
  C  644  1  0.09456500  0.58683400  0.22479800  1
  C  645  1  0.07308100  0.60987200  0.24066200  1
  C  646  1  0.06803000  0.60910300  0.27538000  1
  C  647  1  0.08857800  0.58790700  0.29407200  1
  C  648  1  0.11147200  0.56657000  0.27854000  1
  C  650  1  0.05541000  0.62949400  0.18791300  1
  C  651  1  0.07468700  0.60519000  0.17212600  1
  C  657  1  0.04398600  0.58568200  0.12456900  1
  C  662  1  0.11343400  0.44617900  0.76669800  1
  C  663  1  0.09451200  0.42348900  0.78550900  1
  C  664  1  0.07301300  0.40044400  0.76968700  1
  C  665  1  0.06799400  0.40122300  0.73497500  1
  C  666  1  0.08858800  0.42229800  0.71621200  1
  C  667  1  0.11149300  0.44364000  0.73173000  1
  C  669  1  0.05534400  0.38091200  0.82247000  1
  C  670  1  0.07463800  0.40523000  0.83821200  1
  C  676  1  0.04400000  0.42470800  0.88583400  1
  C  681  1  0.24341100  0.89708700  0.44615200  1
  C  682  1  0.22462200  0.91598600  0.42344500  1
  C  683  1  0.24049700  0.93744500  0.40039900  1
  C  684  1  0.27521700  0.94242600  0.40114600  1
  C  685  1  0.29393900  0.92181800  0.42226100  1
  C  686  1  0.27838200  0.89898300  0.44364500  1
  C  688  1  0.18776200  0.95522200  0.38085000  1
  C  689  1  0.17196900  0.93597900  0.40517800  1
  C  695  1  0.12445700  0.96674700  0.42470100  1
  C  700  1  0.76672000  0.89692600  0.56410800  1
  C  701  1  0.78550400  0.91586500  0.58680200  1
  C  702  1  0.76964700  0.93736800  0.60982500  1
  C  703  1  0.73491100  0.94233900  0.60908100  1
  C  704  1  0.71618200  0.92167000  0.58804800  1
  C  705  1  0.73175900  0.89889600  0.56662000  1
  C  707  1  0.82240100  0.95511100  0.62936500  1
  C  708  1  0.83817800  0.93581800  0.60506900  1
  C  714  1  0.88581100  0.96646000  0.58562300  1
  C  719  1  0.24342100  0.11338700  0.56424600  1
  C  720  1  0.22472100  0.09444400  0.58699000  1
  C  721  1  0.24066400  0.07299700  0.61000100  1
  C  722  1  0.27539300  0.06801100  0.60917500  1
  C  723  1  0.29401000  0.08864000  0.58800100  1
  C  724  1  0.27840600  0.11150400  0.56668400  1
  C  726  1  0.18796900  0.05522100  0.62968400  1
  C  727  1  0.17211500  0.07444600  0.60538000  1
  C  733  1  0.12460900  0.04362700  0.58593400  1
  C  738  1  0.76681700  0.11338400  0.44615200  1
  C  739  1  0.78554100  0.09450600  0.42336800  1
  C  740  1  0.76964700  0.07301500  0.40036200  1
  C  741  1  0.73493600  0.06799800  0.40123000  1
  C  742  1  0.71623700  0.08854800  0.42240700  1
  C  743  1  0.73183600  0.11138900  0.44376100  1
  C  745  1  0.82236100  0.05534000  0.38066700  1
  C  746  1  0.83818300  0.07462300  0.40494600  1
  C  752  1  0.88576900  0.04393900  0.42440400  1
  C  757  1  0.24371600  0.44617900  0.11347300  1
  C  758  1  0.22489800  0.42350700  0.09454000  1
  C  759  1  0.24072800  0.40046100  0.07304300  1
  C  760  1  0.27545700  0.40120500  0.06804000  1
  C  761  1  0.29419100  0.42225100  0.08868400  1
  C  762  1  0.27868100  0.44359500  0.11158700  1
  C  764  1  0.18793900  0.38097300  0.05532500  1
  C  765  1  0.17219500  0.40529200  0.07461700  1
  C  771  1  0.12459000  0.42478200  0.04396300  1
  C  776  1  0.76683900  0.56422200  0.11344400  1
  C  777  1  0.78560500  0.58693100  0.09450700  1
  C  778  1  0.76974100  0.60997100  0.07303100  1
  C  779  1  0.73502000  0.60924400  0.06802000  1
  C  780  1  0.71632100  0.58813700  0.08865200  1
  C  781  1  0.73187300  0.56676500  0.11150300  1
  C  783  1  0.82249200  0.62951100  0.05526900  1
  C  784  1  0.83827200  0.60518800  0.07452500  1
  C  790  1  0.88578400  0.58565000  0.04376900  1
  C  795  1  0.24368900  0.56406300  0.89690600  1
  C  796  1  0.22492900  0.58682400  0.91577900  1
  C  797  1  0.24082300  0.60983500  0.93726900  1
  C  798  1  0.27555100  0.60900500  0.94229000  1
  C  799  1  0.29422100  0.58780300  0.92174400  1
  C  800  1  0.27865600  0.56648100  0.89885700  1
  C  802  1  0.18809300  0.62955300  0.95489800  1
  C  803  1  0.17227900  0.60526400  0.93562300  1
  C  809  1  0.12463400  0.58586000  0.96625800  1
  C  814  1  0.76682200  0.44620600  0.89701000  1
  C  815  1  0.78561500  0.42347900  0.91590700  1
  C  816  1  0.76976600  0.40041900  0.93737000  1
  C  817  1  0.73505500  0.40122800  0.94238900  1
  C  818  1  0.71631100  0.42233700  0.92181300  1
  C  819  1  0.73185100  0.44368400  0.89893100  1
  C  821  1  0.82252700  0.38084000  0.95505100  1
  C  822  1  0.83829700  0.40516800  0.93578800  1
  C  828  1  0.88587800  0.42465600  0.96647500  1
  C  833  1  0.44620300  0.89702500  0.76686400  1
  C  834  1  0.42342500  0.91589500  0.78560300  1
  C  835  1  0.40041900  0.93738800  0.76971700  1
  C  836  1  0.40128000  0.94241400  0.73500800  1
  C  837  1  0.42245100  0.92187300  0.71629600  1
  C  838  1  0.44380800  0.89902700  0.73188300  1
  C  840  1  0.38073100  0.95505400  0.82243800  1
  C  841  1  0.40501700  0.93577100  0.83825200  1
  C  847  1  0.42444900  0.96644500  0.88585800  1
  C  852  1  0.56405300  0.89691600  0.24368300  1
  C  853  1  0.58681700  0.91577600  0.22491400  1
  C  854  1  0.60983500  0.93726700  0.24079800  1
  C  855  1  0.60902400  0.94227800  0.27552900  1
  C  856  1  0.58791000  0.92167500  0.29423800  1
  C  857  1  0.56646900  0.89891900  0.27864900  1
  C  859  1  0.62952800  0.95489800  0.18806000  1
  C  860  1  0.60524200  0.93561300  0.17225400  1
  C  866  1  0.58583800  0.96627700  0.12462900  1
  C  871  1  0.56425900  0.11343000  0.76686400  1
  C  872  1  0.58697800  0.09449200  0.78560000  1
  C  873  1  0.60999600  0.07302700  0.76969200  1
  C  874  1  0.60920000  0.06802200  0.73496600  1
  C  875  1  0.58806300  0.08865800  0.71631300  1
  C  876  1  0.56674300  0.11154300  0.73188300  1
  C  878  1  0.62964000  0.05529800  0.82241800  1
  C  879  1  0.60532800  0.07454300  0.83823700  1
  C  885  1  0.58589700  0.04380200  0.88580400  1
  C  890  1  0.44613900  0.11339900  0.24350800  1
  C  891  1  0.42343300  0.09447800  0.22474200  1
  C  892  1  0.40039900  0.07299500  0.24060400  1
  C  893  1  0.40114400  0.06798600  0.27532600  1
  C  894  1  0.42225800  0.08860900  0.29402800  1
  C  895  1  0.44363000  0.11146300  0.27847800  1
  C  897  1  0.38085700  0.05524400  0.18785600  1
  C  898  1  0.40516600  0.07452000  0.17207500  1
  C  904  1  0.42465400  0.04382400  0.12449800  1
  C  909  1  0.89690900  0.24366700  0.56413000  1
  C  910  1  0.91579600  0.22488700  0.58686100  1
  C  911  1  0.93727200  0.24076900  0.60989500  1
  C  912  1  0.94227500  0.27549900  0.60908900  1
  C  913  1  0.92167200  0.29418800  0.58796200  1
  C  914  1  0.89879500  0.27863900  0.56661700  1
  C  916  1  0.95496000  0.18802100  0.62951800  1
  C  917  1  0.93568400  0.17222500  0.60522000  1
  C  923  1  0.96633700  0.12458100  0.58582300  1
  C  928  1  0.89708400  0.76693500  0.44611900  1
  C  929  1  0.91596400  0.78565000  0.42333100  1
  C  930  1  0.93744700  0.76973900  0.40033300  1
  C  931  1  0.94246100  0.73502700  0.40121000  1
  C  932  1  0.92191000  0.71634000  0.42239400  1
  C  933  1  0.89907400  0.73195200  0.44374100  1
  C  935  1  0.95513800  0.82243800  0.38061000  1
  C  936  1  0.93586700  0.83827700  0.40488900  1
  C  942  1  0.96656400  0.88587100  0.42431300  1
  C  947  1  0.11343200  0.24366200  0.44618600  1
  C  948  1  0.09451200  0.22484500  0.42350700  1
  C  949  1  0.07302000  0.24067300  0.40045400  1
  C  950  1  0.06799400  0.27539500  0.40115100  1
  C  951  1  0.08859300  0.29411900  0.42227100  1
  C  952  1  0.11150400  0.27861900  0.44361000  1
  C  954  1  0.05531100  0.18789600  0.38094600  1
  C  955  1  0.07459400  0.17214700  0.40527200  1
  C  961  1  0.04395300  0.12453600  0.42476500  1
  C  966  1  0.11338500  0.76691600  0.56426600  1
  C  967  1  0.09438100  0.78571400  0.58689600  1
  C  968  1  0.07291400  0.76988500  0.60996600  1
  C  969  1  0.06795600  0.73516600  0.60926900  1
  C  970  1  0.08863100  0.71642200  0.58824800  1
  C  971  1  0.11152500  0.73194700  0.56690400  1
  C  973  1  0.05506400  0.82266000  0.62934500  1
  C  974  1  0.07433000  0.83840300  0.60500500  1
  C  980  1  0.04359700  0.88595500  0.58548200  1
  C  985  1  0.56809000  0.77265400  0.11132800  1
  C  986  1  0.58817700  0.79139700  0.08955800  1
  C  987  1  0.60993900  0.77513300  0.06707000  1
  C  988  1  0.61113800  0.74015700  0.06464200  1
  C  989  1  0.59327400  0.72186300  0.08842200  1
  C  990  1  0.57271100  0.73782800  0.11168200  1
  C  992  1  0.62411900  0.82709500  0.04325300  1
  C  993  1  0.60267300  0.84369600  0.06505300  1
  C  999  1  0.62833200  0.89842200  0.06563000  1
  C  1004  1  0.44231700  0.23777500  0.11126600  1
  C  1005  1  0.42213000  0.21905100  0.08954800  1
  C  1006  1  0.40036700  0.23532800  0.06706500  1
  C  1007  1  0.39925000  0.27031000  0.06463600  1
  C  1008  1  0.41709400  0.28860600  0.08841500  1
  C  1009  1  0.43773900  0.27260200  0.11156200  1
  C  1011  1  0.38599400  0.18336800  0.04337200  1
  C  1012  1  0.40743000  0.16674300  0.06516400  1
  C  1018  1  0.38168500  0.11206100  0.06584300  1
  C  1023  1  0.44215900  0.77265400  0.89906900  1
  C  1024  1  0.42206300  0.79138500  0.92084700  1
  C  1025  1  0.40031000  0.77510800  0.94333300  1
  C  1026  1  0.39918600  0.74013700  0.94574600  1
  C  1027  1  0.41703700  0.72183400  0.92197400  1
  C  1028  1  0.43755800  0.73781800  0.89869100  1
  C  1030  1  0.38606300  0.82706100  0.96712000  1
  C  1031  1  0.40748700  0.84367800  0.94530900  1
  C  1037  1  0.38179700  0.89838200  0.94469500  1
  C  1042  1  0.56814500  0.23779100  0.89904000  1
  C  1043  1  0.58828800  0.21908900  0.92081200  1
  C  1044  1  0.61005800  0.23533300  0.94330900  1
  C  1045  1  0.61118000  0.27030000  0.94573600  1
  C  1046  1  0.59332900  0.28861900  0.92198100  1
  C  1047  1  0.57277300  0.27262600  0.89873300  1
  C  1049  1  0.62428200  0.18336900  0.96707300  1
  C  1050  1  0.60283200  0.16677600  0.94527400  1
  C  1056  1  0.62849000  0.11206000  0.94458700  1
  C  1061  1  0.11137200  0.56810000  0.77254200  1
  C  1062  1  0.08967000  0.58826600  0.79129400  1
  C  1063  1  0.06720600  0.61004800  0.77501400  1
  C  1064  1  0.06473500  0.61116300  0.74003600  1
  C  1065  1  0.08847800  0.59325000  0.72175400  1
  C  1066  1  0.11175300  0.57270600  0.73772000  1
  C  1068  1  0.04348900  0.62437400  0.82698400  1
  C  1069  1  0.06526800  0.60292100  0.84360200  1
  C  1075  1  0.06584900  0.62862100  0.89831300  1
  C  1080  1  0.11126500  0.44216900  0.23757900  1
  C  1081  1  0.08952800  0.42200100  0.21887600  1
  C  1082  1  0.06704200  0.40024600  0.23515100  1
  C  1083  1  0.06458200  0.39913100  0.27011700  1
  C  1084  1  0.08831100  0.41705200  0.28841600  1
  C  1085  1  0.11155800  0.43760800  0.27242100  1
  C  1087  1  0.04332700  0.38591000  0.18319100  1
  C  1088  1  0.06513000  0.40733900  0.16657100  1
  C  1094  1  0.06577100  0.38161100  0.11187400  1
  C  1099  1  0.89909200  0.44233500  0.77261900  1
  C  1100  1  0.92083200  0.42218200  0.79134100  1
  C  1101  1  0.94329600  0.40040900  0.77504700  1
  C  1102  1  0.94570200  0.39928900  0.74006300  1
  C  1103  1  0.92197400  0.41723700  0.72179900  1
  C  1104  1  0.89870900  0.43776100  0.73779600  1
  C  1106  1  0.96704400  0.38607100  0.82699400  1
  C  1107  1  0.94527900  0.40752700  0.84362700  1
  C  1113  1  0.94467300  0.38184100  0.89834000  1
  C  1118  1  0.89904700  0.56812300  0.23781300  1
  C  1119  1  0.92085200  0.58820900  0.21907800  1
  C  1120  1  0.94333800  0.61000300  0.23529700  1
  C  1121  1  0.94576300  0.61116300  0.27026300  1
  C  1122  1  0.92196900  0.59337300  0.28859400  1
  C  1123  1  0.89867600  0.57284700  0.27263400  1
  C  1125  1  0.96712500  0.62412400  0.18330700  1
  C  1126  1  0.94531100  0.60266800  0.16674100  1
  C  1132  1  0.94469500  0.62820800  0.11197100  1
  C  1137  1  0.77267300  0.11126600  0.56809000  1
  C  1138  1  0.79138700  0.08955700  0.58827300  1
  C  1139  1  0.77508600  0.06708700  0.61002800  1
  C  1140  1  0.74011000  0.06462200  0.61114000  1
  C  1141  1  0.72183800  0.08833800  0.59317000  1
  C  1142  1  0.73783300  0.11157600  0.57260700  1
  C  1144  1  0.82703600  0.04337200  0.62441800  1
  C  1145  1  0.84367300  0.06514900  0.60298000  1
  C  1151  1  0.89833800  0.06582600  0.62877200  1
  C  1156  1  0.23776500  0.11131700  0.44233200  1
  C  1157  1  0.21905100  0.08962400  0.42210700  1
  C  1158  1  0.23534000  0.06715700  0.40033500  1
  C  1159  1  0.27032000  0.06471200  0.39924700  1
  C  1160  1  0.28861100  0.08846800  0.41713100  1
  C  1161  1  0.27259400  0.11160400  0.43777800  1
  C  1163  1  0.18338600  0.04349500  0.38589300  1
  C  1164  1  0.16674800  0.06526800  0.40733600  1
  C  1170  1  0.11207000  0.06591800  0.38156200  1
  C  1175  1  0.77261400  0.89905200  0.44217100  1
  C  1176  1  0.79134800  0.92082200  0.42207000  1
  C  1177  1  0.77507600  0.94330400  0.40031300  1
  C  1178  1  0.74010500  0.94571900  0.39919100  1
  C  1179  1  0.72179600  0.92195200  0.41704400  1
  C  1180  1  0.73777900  0.89866900  0.43756800  1
  C  1182  1  0.82703100  0.96708600  0.38606800  1
  C  1183  1  0.84364400  0.94528100  0.40750200  1
  C  1189  1  0.89835000  0.94465100  0.38182400  1
  C  1194  1  0.23777800  0.89908900  0.56810000  1
  C  1195  1  0.21911200  0.92078700  0.58836000  1
  C  1196  1  0.23540200  0.94325200  0.61012700  1
  C  1197  1  0.27036900  0.94572900  0.61113600  1
  C  1198  1  0.28865800  0.92204300  0.59316500  1
  C  1199  1  0.27262900  0.89881700  0.57261400  1
  C  1201  1  0.18345900  0.96689800  0.62461600  1
  C  1202  1  0.16681900  0.94513300  0.60316500  1
  C  1208  1  0.11217200  0.94432000  0.62898400  1
  C  1213  1  0.77255000  0.56811300  0.89911100  1
  C  1214  1  0.79127100  0.58831500  0.92081700  1
  C  1215  1  0.77498200  0.61009500  0.94327600  1
  C  1216  1  0.74000600  0.61116500  0.94573100  1
  C  1217  1  0.72173000  0.59325400  0.92199100  1
  C  1218  1  0.73772200  0.57271600  0.89873600  1
  C  1220  1  0.82694200  0.62448800  0.96697200  1
  C  1221  1  0.84357200  0.60303700  0.94520000  1
  C  1227  1  0.89825900  0.62877400  0.94453500  1
  C  1232  1  0.23766100  0.44214200  0.89905200  1
  C  1233  1  0.21896700  0.42198900  0.92081000  1
  C  1234  1  0.23524800  0.40025400  0.94331100  1
  C  1235  1  0.27021600  0.39916600  0.94574600  1
  C  1236  1  0.28851700  0.41705200  0.92200100  1
  C  1237  1  0.27250800  0.43759100  0.89875100  1
  C  1239  1  0.18329600  0.38592500  0.96704600  1
  C  1240  1  0.16666900  0.40733600  0.94523200  1
  C  1246  1  0.11197900  0.38160100  0.94460900  1
  C  1251  1  0.77263400  0.44229300  0.11130100  1
  C  1252  1  0.79139000  0.42215700  0.08957900  1
  C  1253  1  0.77512800  0.40036200  0.06711600  1
  C  1254  1  0.74015200  0.39919800  0.06466300  1
  C  1255  1  0.72185800  0.41714100  0.08838500  1
  C  1256  1  0.73781600  0.43766500  0.11167600  1
  C  1258  1  0.82709000  0.38609600  0.04336400  1
  C  1259  1  0.84369800  0.40756400  0.06513600  1
  C  1265  1  0.89844200  0.38194000  0.06570800  1
  C  1270  1  0.23777100  0.56810800  0.11130100  1
  C  1271  1  0.21903600  0.58814700  0.08945400  1
  C  1272  1  0.23525300  0.60992700  0.06695100  1
  C  1273  1  0.27021800  0.61114000  0.06457000  1
  C  1274  1  0.28854500  0.59339300  0.08839800  1
  C  1275  1  0.27258700  0.57286400  0.11168900  1
  C  1277  1  0.18326700  0.62397300  0.04311200  1
  C  1278  1  0.16670300  0.60253700  0.06494800  1
  C  1284  1  0.11193000  0.62807500  0.06550900  1
  C  1289  1  0.56809800  0.11128000  0.23773000  1
  C  1290  1  0.58819600  0.08946600  0.21903000  1
  C  1291  1  0.60994600  0.06695600  0.23527700  1
  C  1292  1  0.61111600  0.06455900  0.27024600  1
  C  1293  1  0.59329600  0.08834700  0.28855700  1
  C  1294  1  0.57274300  0.11159600  0.27256200  1
  C  1296  1  0.62409700  0.04313500  0.18331300  1
  C  1297  1  0.60266300  0.06495300  0.16672300  1
  C  1303  1  0.62830200  0.06561800  0.11200400  1
  C  1308  1  0.44231700  0.11134300  0.77256000  1
  C  1309  1  0.42218700  0.08959900  0.79129800  1
  C  1310  1  0.40042400  0.06711600  0.77502200  1
  C  1311  1  0.39928900  0.06470700  0.74003800  1
  C  1312  1  0.41709400  0.08851900  0.72174000  1
  C  1313  1  0.43772600  0.11168100  0.73773700  1
  C  1315  1  0.38615500  0.04334400  0.82697900  1
  C  1316  1  0.40759300  0.06513800  0.84359700  1
  C  1322  1  0.38193300  0.06574200  0.89831800  1
  C  1327  1  0.44213200  0.89903700  0.23774500  1
  C  1328  1  0.42198100  0.92077200  0.21902000  1
  C  1329  1  0.40023600  0.94325700  0.23531000  1
  C  1330  1  0.39917100  0.94571200  0.27027800  1
  C  1331  1  0.41707700  0.92198100  0.28858200  1
  C  1332  1  0.43759100  0.89869600  0.27258900  1
  C  1334  1  0.38586100  0.96696200  0.18335700  1
  C  1335  1  0.40727500  0.94515300  0.16672300  1
  C  1341  1  0.38149200  0.94452000  0.11205300  1
  C  1346  1  0.56814500  0.89908900  0.77272800  1
  C  1347  1  0.58835500  0.92081200  0.79139700  1
  C  1348  1  0.61010700  0.94328400  0.77509600  1
  C  1349  1  0.61119200  0.94574900  0.74012000  1
  C  1350  1  0.59320500  0.92203600  0.72186300  1
  C  1351  1  0.57265200  0.89880500  0.73787800  1
  C  1353  1  0.62452500  0.96699400  0.82703600  1
  C  1354  1  0.60309100  0.94521700  0.84368100  1
  C  1360  1  0.62890800  0.94453700  0.89833800  1
  C  1365  1  0.11134700  0.77252500  0.44231200  1
  C  1366  1  0.08962900  0.79127400  0.42216700  1
  C  1367  1  0.06719000  0.77500000  0.40035700  1
  C  1368  1  0.06474700  0.74002100  0.39921500  1
  C  1369  1  0.08850600  0.72174200  0.41711400  1
  C  1370  1  0.11176800  0.73770700  0.43767000  1
  C  1372  1  0.04341200  0.82696400  0.38610300  1
  C  1373  1  0.06516400  0.84357500  0.40759100  1
  C  1379  1  0.06575700  0.89832500  0.38199900  1
  C  1384  1  0.11128600  0.23782400  0.56811300  1
  C  1385  1  0.08950200  0.21907900  0.58820900  1
  C  1386  1  0.06699000  0.23529700  0.60998100  1
  C  1387  1  0.06456200  0.27026100  0.61116300  1
  C  1388  1  0.08834600  0.28860400  0.59337300  1
  C  1389  1  0.11160900  0.27264400  0.57281200  1
  C  1391  1  0.04321000  0.18330900  0.62411200  1
  C  1392  1  0.06503500  0.16674400  0.60266300  1
  C  1398  1  0.06573000  0.11199700  0.62823300  1
  C  1403  1  0.89909400  0.77258900  0.56802400  1
  C  1404  1  0.92071600  0.79130100  0.58832500  1
  C  1405  1  0.94315500  0.77500200  0.61011700  1
  C  1406  1  0.94568700  0.74003100  0.61115500  1
  C  1407  1  0.92207500  0.72175900  0.59305400  1
  C  1408  1  0.89881700  0.73775400  0.57252100  1
  C  1410  1  0.96672500  0.82695200  0.62471300  1
  C  1411  1  0.94498200  0.84360400  0.60324400  1
  C  1417  1  0.94424800  0.89825100  0.62909100  1
  C  1422  1  0.89905200  0.23779100  0.44221100  1
  C  1423  1  0.92082700  0.21903700  0.42211000  1
  C  1424  1  0.94330600  0.23527600  0.40032000  1
  C  1425  1  0.94572400  0.27024300  0.39916300  1
  C  1426  1  0.92195200  0.28856900  0.41698500  1
  C  1427  1  0.89867400  0.27260900  0.43752600  1
  C  1429  1  0.96706300  0.18329500  0.38612000  1
  C  1430  1  0.94525200  0.16670900  0.40756600  1
  C  1436  1  0.94465300  0.11197500  0.38193500  1
  N  8  1  0.26131400  0.43397400  0.00695600  1
  N  15  1  0.43401300  0.26132100  0.00341400  1
  N  30  1  0.74901700  0.57640700  0.00694600  1
  N  37  1  0.57628600  0.74899300  0.00344100  1
  N  52  1  0.74907200  0.43402100  0.00347100  1
  N  59  1  0.57637500  0.26139000  0.00693200  1
  N  74  1  0.26143000  0.57626100  0.00338400  1
  N  81  1  0.43399400  0.74903000  0.00695100  1
  N  96  1  0.00693300  0.26136800  0.43397900  1
  N  103  1  0.00339200  0.43395400  0.26122000  1
  N  118  1  0.00688400  0.74909400  0.57640900  1
  N  125  1  0.00351800  0.57639700  0.74908400  1
  N  140  1  0.00354300  0.74900700  0.43401100  1
  N  147  1  0.00694200  0.57631000  0.26138100  1
  N  162  1  0.00338200  0.26141800  0.57631800  1
  N  169  1  0.00692600  0.43405000  0.74900500  1
  N  184  1  0.43395200  0.00692100  0.26129200  1
  N  191  1  0.26126900  0.00349600  0.43399100  1
  N  206  1  0.57640400  0.00694300  0.74906700  1
  N  213  1  0.74898500  0.00342600  0.57630800  1
  N  228  1  0.43408300  0.00349100  0.74899800  1
  N  235  1  0.26135600  0.00692800  0.57637500  1
  N  250  1  0.57626600  0.00336700  0.26141800  1
  N  257  1  0.74903000  0.00691400  0.43399800  1
  N  272  1  0.75905900  0.93148700  0.50312500  1
  N  279  1  0.93170900  0.75942300  0.50711700  1
  N  294  1  0.25103200  0.07878000  0.50325300  1
  N  301  1  0.07888300  0.25140000  0.50715900  1
  N  316  1  0.25108900  0.93163500  0.50715200  1
  N  323  1  0.07889900  0.75903900  0.50325800  1
  N  338  1  0.75931100  0.07875200  0.50714000  1
  N  345  1  0.93148200  0.25131900  0.50313700  1
  N  360  1  0.50310500  0.75911800  0.93152600  1
  N  367  1  0.50721100  0.93163800  0.75935600  1
  N  382  1  0.50324100  0.25107200  0.07875500  1
  N  389  1  0.50713200  0.07884700  0.25124500  1
  N  404  1  0.50719400  0.25127900  0.93150400  1
  N  411  1  0.50326100  0.07886100  0.75918300  1
  N  426  1  0.50715700  0.75914800  0.07887100  1
  N  433  1  0.50306800  0.93154100  0.25115300  1
  N  448  1  0.93160000  0.50327300  0.75926200  1
  N  455  1  0.75913600  0.50718900  0.93159300  1
  N  470  1  0.07879700  0.50311700  0.25104900  1
  N  477  1  0.25145700  0.50715900  0.07893900  1
  N  492  1  0.93143700  0.50717400  0.25141500  1
  N  499  1  0.75918000  0.50323800  0.07885400  1
  N  514  1  0.07888900  0.50717700  0.75905700  1
  N  521  1  0.25114300  0.50308000  0.93153600  1
  N  535  1  0.38008300  0.22122500  0.95585200  1
  N  538  1  0.42524200  0.19114800  0.91687600  1
  N  542  1  0.41007100  0.13764700  0.93571200  1
  N  554  1  0.63021800  0.78899900  0.95580800  1
  N  557  1  0.58512600  0.81907300  0.91676300  1
  N  561  1  0.60039200  0.87258800  0.93546400  1
  N  573  1  0.63046000  0.22140600  0.05457600  1
  N  576  1  0.58537300  0.19118800  0.09352200  1
  N  580  1  0.60073000  0.13773400  0.07470600  1
  N  592  1  0.37998400  0.78896500  0.05457200  1
  N  595  1  0.42506200  0.81908100  0.09361700  1
  N  599  1  0.40978100  0.87257800  0.07487200  1
  N  611  1  0.95580800  0.38011300  0.22127000  1
  N  614  1  0.91683700  0.42527900  0.19121600  1
  N  618  1  0.93566200  0.41013700  0.13770700  1
  N  630  1  0.95596400  0.63039400  0.78919700  1
  N  633  1  0.91696300  0.58529400  0.81933500  1
  N  637  1  0.93580600  0.60054000  0.87281500  1
  N  649  1  0.05462200  0.63027200  0.22131700  1
  N  652  1  0.09360500  0.58515100  0.19120800  1
  N  656  1  0.07481700  0.60039400  0.13771300  1
  N  668  1  0.05452500  0.38010100  0.78906600  1
  N  671  1  0.09357300  0.42522000  0.81909800  1
  N  675  1  0.07482300  0.41004300  0.87262200  1
  N  687  1  0.22116600  0.95595600  0.38003400  1
  N  690  1  0.19103600  0.91700700  0.42518500  1
  N  694  1  0.13755800  0.93590000  0.40998400  1
  N  706  1  0.78899700  0.95586700  0.63018600  1
  N  709  1  0.81909000  0.91684900  0.58508200  1
  N  713  1  0.87259000  0.93564700  0.60030000  1
  N  725  1  0.22137500  0.05448800  0.63041300  1
  N  728  1  0.19113200  0.09342000  0.58532900  1
  N  732  1  0.13769500  0.07448900  0.60063400  1
  N  744  1  0.78895500  0.05454700  0.37993500  1
  N  747  1  0.81913200  0.09354800  0.42500700  1
  N  751  1  0.87260300  0.07475600  0.40968200  1
  N  763  1  0.22134200  0.38012500  0.05455200  1
  N  766  1  0.19131200  0.42526400  0.09356700  1
  N  770  1  0.13778900  0.41011800  0.07479100  1
  N  782  1  0.78908600  0.63032900  0.05452200  1
  N  785  1  0.81919200  0.58519500  0.09349400  1
  N  789  1  0.87268200  0.60036400  0.07461500  1
  N  801  1  0.22149800  0.63028000  0.95570400  1
  N  804  1  0.19133700  0.58519000  0.91671800  1
  N  808  1  0.13785800  0.60054000  0.93544700  1
  N  820  1  0.78912300  0.38004900  0.95585200  1
  N  823  1  0.81920400  0.42519000  0.91686400  1
  N  827  1  0.87270600  0.40996900  0.93564500  1
  N  839  1  0.38000200  0.95586000  0.78903400  1
  N  842  1  0.42507200  0.91684700  0.81919400  1
  N  846  1  0.40975700  0.93562300  0.87267200  1
  N  858  1  0.63026800  0.95570600  0.22146500  1
  N  861  1  0.58517500  0.91671100  0.19132200  1
  N  865  1  0.60049500  0.93544700  0.13783600  1
  N  877  1  0.63039100  0.05453300  0.78901400  1
  N  880  1  0.58529400  0.09350100  0.81918700  1
  N  884  1  0.60057200  0.07464800  0.87265500  1
  N  896  1  0.38003600  0.05449400  0.22126000  1
  N  899  1  0.42516300  0.09348400  0.19115600  1
  N  903  1  0.40995400  0.07465200  0.13766200  1
  N  915  1  0.95573900  0.22142500  0.63029200  1
  N  918  1  0.91676000  0.19129800  0.58518000  1
  N  922  1  0.93551100  0.13780800  0.60047100  1
  N  934  1  0.95592900  0.78903200  0.37990000  1
  N  937  1  0.91693300  0.81924100  0.42495800  1
  N  941  1  0.93574400  0.87269900  0.40960300  1
  N  953  1  0.05453800  0.22129800  0.38010100  1
  N  956  1  0.09354000  0.19125800  0.42525400  1
  N  960  1  0.07477000  0.13773900  0.41008000  1
  N  972  1  0.05434900  0.78925900  0.63024300  1
  N  975  1  0.09334500  0.81929600  0.58508200  1
  N  979  1  0.07444200  0.87280800  0.60015700  1
  N  991  1  0.62673500  0.79388700  0.04486700  1
  N  994  1  0.58525500  0.82487500  0.08694200  1
  N  998  1  0.59782500  0.87831600  0.06252100  1
  N  1010  1  0.38347000  0.21658500  0.04493200  1
  N  1013  1  0.42495300  0.18555900  0.08697700  1
  N  1017  1  0.41221100  0.13211600  0.06264300  1
  N  1029  1  0.38349000  0.79384700  0.96552800  1
  N  1032  1  0.42494300  0.82486800  0.92344000  1
  N  1036  1  0.41231000  0.87830100  0.94785200  1
  N  1048  1  0.62688300  0.21658100  0.96548600  1
  N  1051  1  0.58538800  0.18560800  0.92341300  1
  N  1055  1  0.59799100  0.13215600  0.94779100  1
  N  1067  1  0.04506800  0.62692300  0.79377100  1
  N  1070  1  0.08708500  0.58541000  0.82478100  1
  N  1074  1  0.06272900  0.59810500  0.87822700  1
  N  1086  1  0.04488700  0.38337600  0.21640900  1
  N  1089  1  0.08695600  0.42484200  0.18538800  1
  N  1093  1  0.06260300  0.41213200  0.13194400  1
  N  1105  1  0.96544400  0.38352200  0.79377800  1
  N  1108  1  0.92344200  0.42503400  0.82482600  1
  N  1112  1  0.94784500  0.41234700  0.87824700  1
  N  1124  1  0.96553600  0.62677200  0.21651500  1
  N  1127  1  0.92344500  0.58526200  0.18559900  1
  N  1131  1  0.94784700  0.59774900  0.13213300  1
  N  1143  1  0.79381500  0.04494400  0.62692800  1
  N  1146  1  0.82487500  0.08697700  0.58545500  1
  N  1150  1  0.87830600  0.06263500  0.59822800  1
  N  1162  1  0.21660600  0.04504900  0.38339800  1
  N  1165  1  0.18555600  0.08705800  0.42489600  1
  N  1169  1  0.13211700  0.06274000  0.41209800  1
  N  1181  1  0.79381800  0.96549400  0.38349000  1
  N  1184  1  0.82483100  0.92341500  0.42495800  1
  N  1188  1  0.87826400  0.94783000  0.41233300  1
  N  1200  1  0.21668200  0.96535800  0.62708300  1
  N  1203  1  0.18561600  0.92334600  0.58559100  1
  N  1207  1  0.13218200  0.94764500  0.59844400  1
  N  1219  1  0.79372600  0.62699900  0.96540200  1
  N  1222  1  0.82476200  0.58549700  0.92339800  1
  N  1226  1  0.87820000  0.59825100  0.94774100  1
  N  1238  1  0.21651400  0.38339600  0.96548100  1
  N  1241  1  0.18547900  0.42482700  0.92338800  1
  N  1245  1  0.13204200  0.41212700  0.94776600  1
  N  1257  1  0.79387900  0.38350700  0.04496200  1
  N  1260  1  0.82487300  0.42504900  0.08697200  1
  N  1264  1  0.87831300  0.41242600  0.06257500  1
  N  1276  1  0.21647200  0.62665300  0.04472000  1
  N  1279  1  0.18556100  0.58517300  0.08684700  1
  N  1283  1  0.13209600  0.59761000  0.06241300  1
  N  1295  1  0.62672200  0.04474000  0.21652300  1
  N  1298  1  0.58526700  0.08685100  0.18555300  1
  N  1302  1  0.59780600  0.06243600  0.13210500  1
  N  1314  1  0.38358100  0.04494300  0.79376600  1
  N  1317  1  0.42506400  0.08699300  0.82478400  1
  N  1321  1  0.41243100  0.06258200  0.87821400  1
  N  1333  1  0.38335400  0.96541000  0.21657700  1
  N  1336  1  0.42479500  0.92332900  0.18552800  1
  N  1340  1  0.41203600  0.94767700  0.13209200  1
  N  1352  1  0.62702200  0.96542000  0.79381500  1
  N  1355  1  0.58555600  0.92339300  0.82489000  1
  N  1359  1  0.59835700  0.94772900  0.87831800  1
  N  1371  1  0.04503100  0.79375600  0.38350700  1
  N  1374  1  0.08700100  0.82475400  0.42507400  1
  N  1378  1  0.06257500  0.87818200  0.41247100  1
  N  1390  1  0.04479200  0.21651900  0.62675500  1
  N  1393  1  0.08690400  0.18560100  0.58526200  1
  N  1397  1  0.06250600  0.13213400  0.59776400  1
  N  1409  1  0.96520400  0.79372600  0.62713800  1
  N  1412  1  0.92325400  0.82480600  0.58559800  1
  N  1416  1  0.94750100  0.87824400  0.59853700  1
  N  1428  1  0.96548400  0.21650600  0.38351200  1
  N  1431  1  0.92340300  0.18555300  0.42501500  1
  N  1435  1  0.94777600  0.13209100  0.41242900  1
