# generated using pymatgen
data_H12C20N5O4
_symmetry_space_group_name_H-M   'P 1'
_cell_length_a   55.05780000
_cell_length_b   55.05760000
_cell_length_c   65.35660000
_cell_angle_alpha   90.00060000
_cell_angle_beta   90.00000000
_cell_angle_gamma   90.00000000
_symmetry_Int_Tables_number   1
_chemical_formula_structural   H12C20N5O4
_chemical_formula_sum   'H384 C640 N160 O128'
_cell_volume   198118.75091976
_cell_formula_units_Z   32
loop_
 _symmetry_equiv_pos_site_id
 _symmetry_equiv_pos_as_xyz
  1  'x, y, z'
loop_
 _atom_site_type_symbol
 _atom_site_label
 _atom_site_symmetry_multiplicity
 _atom_site_fract_x
 _atom_site_fract_y
 _atom_site_fract_z
 _atom_site_occupancy
  H  7  1  0.15803600  0.41537500  0.89316100  1
  H  8  1  0.18711300  0.36447000  0.93395100  1
  H  15  1  0.13341400  0.41156800  0.80880300  1
  H  16  1  0.18704500  0.38584900  0.84863300  1
  H  19  1  0.15795300  0.34096800  0.85767800  1
  H  20  1  0.17035500  0.32109800  0.87334500  1
  H  21  1  0.09312900  0.39550100  0.87109400  1
  H  22  1  0.11403700  0.38432700  0.88644500  1
  H  33  1  0.34002600  0.53351700  0.39319200  1
  H  34  1  0.31101700  0.58447700  0.43397000  1
  H  41  1  0.36462800  0.53730500  0.30881200  1
  H  42  1  0.31101900  0.56300600  0.34867200  1
  H  45  1  0.34010600  0.60788600  0.35765300  1
  H  46  1  0.32771200  0.62777300  0.37330900  1
  H  47  1  0.40496600  0.55343400  0.37106300  1
  H  48  1  0.38406200  0.56457800  0.38643600  1
  H  59  1  0.80816400  0.88921500  0.14368100  1
  H  60  1  0.85925900  0.91923100  0.18375000  1
  H  67  1  0.81220100  0.85779200  0.06106100  1
  H  68  1  0.83608500  0.91508900  0.09812000  1
  H  71  1  0.88253900  0.88730000  0.10818200  1
  H  72  1  0.90259000  0.89985100  0.12360900  1
  H  73  1  0.83092400  0.82236300  0.12476600  1
  H  74  1  0.84149400  0.84462500  0.13905500  1
  H  85  1  0.68987400  0.05969600  0.64367500  1
  H  86  1  0.63887100  0.02954600  0.68375400  1
  H  93  1  0.68577800  0.09107700  0.56106400  1
  H  94  1  0.66191000  0.03378300  0.59813300  1
  H  97  1  0.61545900  0.06154100  0.60823400  1
  H  98  1  0.59543800  0.04895900  0.62367400  1
  H  99  1  0.66716500  0.12649800  0.62480000  1
  H  100  1  0.65658900  0.10424000  0.63909000  1
  H  111  1  0.33793800  0.41324000  0.59916100  1
  H  112  1  0.31211200  0.36003600  0.55901200  1
  H  119  1  0.35978900  0.41302000  0.68420800  1
  H  120  1  0.30848900  0.38432200  0.64355700  1
  H  123  1  0.33926000  0.33993400  0.63655300  1
  H  124  1  0.32818300  0.31914300  0.62103600  1
  H  125  1  0.40275300  0.39604000  0.62344600  1
  H  126  1  0.38277100  0.38365000  0.60787800  1
  H  137  1  0.16019900  0.53562100  0.09915000  1
  H  138  1  0.18597700  0.58886400  0.05901700  1
  H  145  1  0.13830200  0.53586700  0.18421100  1
  H  146  1  0.18960600  0.56454400  0.14355200  1
  H  149  1  0.15884400  0.60891000  0.13657400  1
  H  150  1  0.16992300  0.62971100  0.12107000  1
  H  151  1  0.09533600  0.55284500  0.12345300  1
  H  152  1  0.11532400  0.56521200  0.10787400  1
  H  163  1  0.68782800  0.89120600  0.34837100  1
  H  164  1  0.63458300  0.91839200  0.30893200  1
  H  171  1  0.68713800  0.86316000  0.43210800  1
  H  172  1  0.66108900  0.91806900  0.39349200  1
  H  175  1  0.61457400  0.88817500  0.38571600  1
  H  176  1  0.59363100  0.89936100  0.37039100  1
  H  177  1  0.66710500  0.82429800  0.37014500  1
  H  178  1  0.65564400  0.84565600  0.35536000  1
  H  189  1  0.81028300  0.05772000  0.84840500  1
  H  190  1  0.86346400  0.03044200  0.80894700  1
  H  197  1  0.81102600  0.08576900  0.93213000  1
  H  198  1  0.83703000  0.03082700  0.89352300  1
  H  201  1  0.88357200  0.06066800  0.88571200  1
  H  202  1  0.90449000  0.04945900  0.87037300  1
  H  203  1  0.83101100  0.12458300  0.87013200  1
  H  204  1  0.84246200  0.10321500  0.85535100  1
  H  215  1  0.83447600  0.53370100  0.10420500  1
  H  216  1  0.80455000  0.58521900  0.06442200  1
  H  223  1  0.86582200  0.53758700  0.18706900  1
  H  224  1  0.80851800  0.56124500  0.14992600  1
  H  227  1  0.83638000  0.60776400  0.14016400  1
  H  228  1  0.82368900  0.62790600  0.12490500  1
  H  229  1  0.90130200  0.55638100  0.12339000  1
  H  230  1  0.87902800  0.56686400  0.10907100  1
  H  241  1  0.66360500  0.41523100  0.60413500  1
  H  242  1  0.69340800  0.36363000  0.56435800  1
  H  249  1  0.63230900  0.41131400  0.68705900  1
  H  250  1  0.68956500  0.38769000  0.64985200  1
  H  253  1  0.66165100  0.34120400  0.64014700  1
  H  254  1  0.67429700  0.32103200  0.62489100  1
  H  255  1  0.59674600  0.39256400  0.62340500  1
  H  256  1  0.61900600  0.38210900  0.60905400  1
  H  267  1  0.19271200  0.05748500  0.85423600  1
  H  268  1  0.13747400  0.02981600  0.81677700  1
  H  275  1  0.19262300  0.09150400  0.93713800  1
  H  276  1  0.16763100  0.03385700  0.90101700  1
  H  279  1  0.12072500  0.06398200  0.89284200  1
  H  280  1  0.09922900  0.05197700  0.87850900  1
  H  281  1  0.17154500  0.12634300  0.87368100  1
  H  282  1  0.16069100  0.10388300  0.85976500  1
  H  293  1  0.30535200  0.89142400  0.35427000  1
  H  294  1  0.36055000  0.91909600  0.31676900  1
  H  301  1  0.30555700  0.85744100  0.43719100  1
  H  302  1  0.33050400  0.91506200  0.40102300  1
  H  305  1  0.37738500  0.88491300  0.39281300  1
  H  306  1  0.39886700  0.89691500  0.37846200  1
  H  307  1  0.32648300  0.82257100  0.37370700  1
  H  308  1  0.33731800  0.84502200  0.35977100  1
  H  319  1  0.66551700  0.53588600  0.39976700  1
  H  320  1  0.69214600  0.58943400  0.43921100  1
  H  327  1  0.63781900  0.53657000  0.31578900  1
  H  328  1  0.69259400  0.56245600  0.35461000  1
  H  331  1  0.66258200  0.60896000  0.36216700  1
  H  332  1  0.67375200  0.62996900  0.37743300  1
  H  333  1  0.59872000  0.55652200  0.37767700  1
  H  334  1  0.62003600  0.56791200  0.39254100  1
  H  345  1  0.83253300  0.41307500  0.89979800  1
  H  346  1  0.80601300  0.35946300  0.93923100  1
  H  353  1  0.86022400  0.41239100  0.81579000  1
  H  354  1  0.80546900  0.38651200  0.85463200  1
  H  357  1  0.83549900  0.34003700  0.86214800  1
  H  358  1  0.82436000  0.31900600  0.87740700  1
  H  359  1  0.89935700  0.39243700  0.87766100  1
  H  360  1  0.87804700  0.38106300  0.89253800  1
  H  371  1  0.30786400  0.05651000  0.65072000  1
  H  372  1  0.36541400  0.03099600  0.68670100  1
  H  379  1  0.30428600  0.08647000  0.56624900  1
  H  380  1  0.33137900  0.03120200  0.60395500  1
  H  383  1  0.37788500  0.06309000  0.60939400  1
  H  384  1  0.40027800  0.05200600  0.62326000  1
  H  385  1  0.32631700  0.12479000  0.62800600  1
  H  386  1  0.33807800  0.10325400  0.64243700  1
  H  397  1  0.19022200  0.89239300  0.15064000  1
  H  398  1  0.13272800  0.91788200  0.18669700  1
  H  405  1  0.19368900  0.86241800  0.06617600  1
  H  406  1  0.16665800  0.91771500  0.10388500  1
  H  409  1  0.12014200  0.88587200  0.10937800  1
  H  410  1  0.09777000  0.89693700  0.12327500  1
  H  411  1  0.17171800  0.82413500  0.12796600  1
  H  412  1  0.15998700  0.84568400  0.14240300  1
  H  423  1  0.22420600  0.39294500  0.72065100  1
  H  424  1  0.24686300  0.38709400  0.68988200  1
  H  431  1  0.21688500  0.44774700  0.78983500  1
  H  432  1  0.21394800  0.37139900  0.79257700  1
  H  433  1  0.31073700  0.40996700  0.72039600  1
  H  434  1  0.28791000  0.41577100  0.75108100  1
  H  443  1  0.28621000  0.38320700  0.67339200  1
  H  444  1  0.20555100  0.42019600  0.82329800  1
  H  451  1  0.27387400  0.55593900  0.22066600  1
  H  452  1  0.25122300  0.56179100  0.18989200  1
  H  459  1  0.28111700  0.50115500  0.28987800  1
  H  460  1  0.28412900  0.57750100  0.29259200  1
  H  461  1  0.18733100  0.53897500  0.22040800  1
  H  462  1  0.21014800  0.53316900  0.25109600  1
  H  471  1  0.21186700  0.56571400  0.17340700  1
  H  472  1  0.29244900  0.52873600  0.32334200  1
  H  479  1  0.82904000  0.94967800  0.96990600  1
  H  480  1  0.83650100  0.97326400  0.93986900  1
  H  487  1  0.77287900  0.94102500  0.03851800  1
  H  488  1  0.84918600  0.93806800  0.04188900  1
  H  489  1  0.81281200  0.03638300  0.97099800  1
  H  490  1  0.80541400  0.01263300  0.00102300  1
  H  499  1  0.84440000  0.01437300  0.92619900  1
  H  500  1  0.79936400  0.92959500  0.07199600  1
  H  507  1  0.66911000  0.99925700  0.46986300  1
  H  508  1  0.66167800  0.97567300  0.43981700  1
  H  515  1  0.72514600  0.00786200  0.53856000  1
  H  516  1  0.64883300  0.01083200  0.54183100  1
  H  517  1  0.68527800  0.91254200  0.47097500  1
  H  518  1  0.69264900  0.93628400  0.50100300  1
  H  527  1  0.65375900  0.93456300  0.42615000  1
  H  528  1  0.69865900  0.01930700  0.57199200  1
  H  535  1  0.77394200  0.55451800  0.27821100  1
  H  536  1  0.75037200  0.56193000  0.30826600  1
  H  543  1  0.78239800  0.49831700  0.20954700  1
  H  544  1  0.78561700  0.57461600  0.20620700  1
  H  545  1  0.68722900  0.53834000  0.27711800  1
  H  546  1  0.71096200  0.53098700  0.24708200  1
  H  555  1  0.70930200  0.56973100  0.32202300  1
  H  556  1  0.79380800  0.52485800  0.17604000  1
  H  563  1  0.72410100  0.39443700  0.77822500  1
  H  564  1  0.74766400  0.38704700  0.80829200  1
  H  571  1  0.71573900  0.45056300  0.70948800  1
  H  572  1  0.71244800  0.37426300  0.70622400  1
  H  573  1  0.81082100  0.41057100  0.77712900  1
  H  574  1  0.78709900  0.41789900  0.74708600  1
  H  583  1  0.78873200  0.37924400  0.82205800  1
  H  584  1  0.70431800  0.42403900  0.67601300  1
  H  591  1  0.17328300  0.99798500  0.02809100  1
  H  592  1  0.16560300  0.97379800  0.05776800  1
  H  599  1  0.23127200  0.00779200  0.96030800  1
  H  600  1  0.15503200  0.01096300  0.95604600  1
  H  601  1  0.19115000  0.91159700  0.02637200  1
  H  602  1  0.19871100  0.93592400  0.99668300  1
  H  611  1  0.15751800  0.93169700  0.07024700  1
  H  612  1  0.20456200  0.01902200  0.92632600  1
  H  619  1  0.32466400  0.95088200  0.52819600  1
  H  620  1  0.33231800  0.97507200  0.55787800  1
  H  627  1  0.26685400  0.94114200  0.46028600  1
  H  628  1  0.34310300  0.93792200  0.45617900  1
  H  629  1  0.30690700  0.03729000  0.52643500  1
  H  630  1  0.29937100  0.01296500  0.49674300  1
  H  639  1  0.34046200  0.01718100  0.57033500  1
  H  640  1  0.29352100  0.92984800  0.42639000  1
  H  647  1  0.72446600  0.89871800  0.22103500  1
  H  648  1  0.74693900  0.89243600  0.19020400  1
  H  655  1  0.71783700  0.95402900  0.29008600  1
  H  656  1  0.71529600  0.87767800  0.29322100  1
  H  657  1  0.81100500  0.91570100  0.22022900  1
  H  658  1  0.78838100  0.92194700  0.25095100  1
  H  667  1  0.78674100  0.88719700  0.17416200  1
  H  668  1  0.70730300  0.92553000  0.32408200  1
  H  675  1  0.77364600  0.05015200  0.72101000  1
  H  676  1  0.75117500  0.05640200  0.69017100  1
  H  683  1  0.78018200  0.99492500  0.79014000  1
  H  684  1  0.78283400  0.07127800  0.79318100  1
  H  685  1  0.68709700  0.03322300  0.72022300  1
  H  686  1  0.70971500  0.02701100  0.75095000  1
  H  695  1  0.71137500  0.06163000  0.67412100  1
  H  696  1  0.79073100  0.02344500  0.82410200  1
  H  703  1  0.33050600  0.44925600  0.47102500  1
  H  704  1  0.33567300  0.47117400  0.43980600  1
  H  711  1  0.27606800  0.44305200  0.54043700  1
  H  712  1  0.35244400  0.44058600  0.54296600  1
  H  713  1  0.31233200  0.53552000  0.46937600  1
  H  714  1  0.30728600  0.51344200  0.50050700  1
  H  723  1  0.33630300  0.50927600  0.42159800  1
  H  724  1  0.30406400  0.43231600  0.57398700  1
  H  731  1  0.16763400  0.49968500  0.97098000  1
  H  732  1  0.16247100  0.47777200  0.93975600  1
  H  739  1  0.22204100  0.50579800  0.04043100  1
  H  740  1  0.14566600  0.50835600  0.04292200  1
  H  741  1  0.18573800  0.41340300  0.96933700  1
  H  742  1  0.19078000  0.43547700  0.00047000  1
  H  751  1  0.16184500  0.43966900  0.92153900  1
  H  752  1  0.19401300  0.51652800  0.07398000  1
  H  759  1  0.27274400  0.05035000  0.77799200  1
  H  760  1  0.24886400  0.05794700  0.80785600  1
  H  767  1  0.28192600  0.99265200  0.71000100  1
  H  768  1  0.28498800  0.06890700  0.70591500  1
  H  769  1  0.18633700  0.03253700  0.77684900  1
  H  770  1  0.21035900  0.02505300  0.74697500  1
  H  779  1  0.20696400  0.06600500  0.82069000  1
  H  780  1  0.29292000  0.01945900  0.67603000  1
  H  787  1  0.22524200  0.89870500  0.27802900  1
  H  788  1  0.24909700  0.89112200  0.30791100  1
  H  795  1  0.21620700  0.95623100  0.20991300  1
  H  796  1  0.21307600  0.87996900  0.20596300  1
  H  797  1  0.31168200  0.91635500  0.27688600  1
  H  798  1  0.28768900  0.92382700  0.24699700  1
  H  807  1  0.29096900  0.88301200  0.32077000  1
  H  808  1  0.20519900  0.92942400  0.17600100  1
  H  815  1  0.67278200  0.49866500  0.52705000  1
  H  816  1  0.66641500  0.47594900  0.55773900  1
  H  823  1  0.72817500  0.50586900  0.45812700  1
  H  824  1  0.65183700  0.50867300  0.45498900  1
  H  825  1  0.68959000  0.41208100  0.52737900  1
  H  826  1  0.69592400  0.43495300  0.49678000  1
  H  835  1  0.66075300  0.43590700  0.57335900  1
  H  836  1  0.70004300  0.51684600  0.42428500  1
  H  843  1  0.82519100  0.45018200  0.02716300  1
  H  844  1  0.83154700  0.47290200  0.05785300  1
  H  851  1  0.76988800  0.44305500  0.95816600  1
  H  852  1  0.84622800  0.44016800  0.95511200  1
  H  853  1  0.80847600  0.53678200  0.02746000  1
  H  854  1  0.80215400  0.51391100  0.99686100  1
  H  863  1  0.83723000  0.51294400  0.07347000  1
  H  864  1  0.79798400  0.43205000  0.92436900  1
  H  871  1  0.19675700  0.24291400  0.95302400  1
  H  872  1  0.19371500  0.28630900  0.95387200  1
  H  879  1  0.23655500  0.16559200  0.93577500  1
  H  880  1  0.17011200  0.16831200  0.90389100  1
  H  881  1  0.20906800  0.28900100  0.89048400  1
  H  882  1  0.21214400  0.24561900  0.88974500  1
  H  891  1  0.20438200  0.32602900  0.93454300  1
  H  892  1  0.21516500  0.12832400  0.92779500  1
  H  899  1  0.30117100  0.70594700  0.45306500  1
  H  900  1  0.30417500  0.66254700  0.45387800  1
  H  907  1  0.26162000  0.78332900  0.43588300  1
  H  908  1  0.32802300  0.78061900  0.40394100  1
  H  909  1  0.28919800  0.65996700  0.39042400  1
  H  910  1  0.28614900  0.70334900  0.38972100  1
  H  919  1  0.29354300  0.62285900  0.43442900  1
  H  920  1  0.28303900  0.82059900  0.42793900  1
  H  927  1  0.98240800  0.91961800  0.20227000  1
  H  928  1  0.93899000  0.91706100  0.20356600  1
  H  935  1  0.05945900  0.96361500  0.18400800  1
  H  936  1  0.05569000  0.89566600  0.15450300  1
  H  937  1  0.93511400  0.94082200  0.14208400  1
  H  938  1  0.97857400  0.94328000  0.14087300  1
  H  947  1  0.89919000  0.93073500  0.18630300  1
  H  948  1  0.09639300  0.94129900  0.17670100  1
  H  955  1  0.51558000  0.02994300  0.70215900  1
  H  956  1  0.55899700  0.03252900  0.70350600  1
  H  963  1  0.43863400  0.98515400  0.68378000  1
  H  964  1  0.44241200  0.05330400  0.65460500  1
  H  965  1  0.56305200  0.00751900  0.64238400  1
  H  966  1  0.51959100  0.00503300  0.64111900  1
  H  975  1  0.59883600  0.01856700  0.68654200  1
  H  976  1  0.40170000  0.00750700  0.67654900  1
  H  983  1  0.30394600  0.23639400  0.54413100  1
  H  984  1  0.30798000  0.27961000  0.54144500  1
  H  991  1  0.26116900  0.16111700  0.56464600  1
  H  992  1  0.32784100  0.16462800  0.59614700  1
  H  993  1  0.28982600  0.28663300  0.60407300  1
  H  994  1  0.28586200  0.24343600  0.60665800  1
  H  1003  1  0.29756200  0.32058000  0.55833700  1
  H  1004  1  0.28249100  0.12397600  0.57362300  1
  H  1011  1  0.19420300  0.71245300  0.04409900  1
  H  1012  1  0.19021500  0.66922900  0.04143800  1
  H  1019  1  0.23678900  0.78778700  0.06454000  1
  H  1020  1  0.17020300  0.78426800  0.09616700  1
  H  1021  1  0.20812700  0.66229700  0.10412200  1
  H  1022  1  0.21205700  0.70549600  0.10668200  1
  H  1031  1  0.20064600  0.62828500  0.05841200  1
  H  1032  1  0.21550100  0.82492500  0.07356400  1
  H  1039  1  0.50887500  0.91331700  0.29564700  1
  H  1040  1  0.55203500  0.90940100  0.29235800  1
  H  1047  1  0.43456400  0.96408400  0.31702300  1
  H  1048  1  0.43873600  0.89528900  0.34506700  1
  H  1049  1  0.56109200  0.94184000  0.35055500  1
  H  1050  1  0.51788000  0.94564400  0.35376400  1
  H  1059  1  0.59325500  0.92363500  0.30576600  1
  H  1060  1  0.39761300  0.94182400  0.32506500  1
  H  1067  1  0.98921900  0.03615700  0.79581600  1
  H  1068  1  0.94605700  0.04004500  0.79250700  1
  H  1075  1  0.06346200  0.98469900  0.81728300  1
  H  1076  1  0.05934500  0.05374900  0.84488800  1
  H  1077  1  0.93693600  0.00657600  0.85028000  1
  H  1078  1  0.98015100  0.00278800  0.85350900  1
  H  1087  1  0.90483100  0.02549800  0.80568500  1
  H  1088  1  0.10043100  0.00703500  0.82516000  1
  H  1095  1  0.80059900  0.70670600  0.04538200  1
  H  1096  1  0.80131500  0.66320600  0.04466200  1
  H  1103  1  0.76455900  0.78606200  0.06255700  1
  H  1104  1  0.83090200  0.78001900  0.09426600  1
  H  1105  1  0.78538200  0.66157800  0.10797100  1
  H  1106  1  0.78463200  0.70508300  0.10858700  1
  H  1115  1  0.78836300  0.62413500  0.06416400  1
  H  1116  1  0.78748600  0.82221300  0.07083100  1
  H  1123  1  0.69762900  0.24219100  0.54533800  1
  H  1124  1  0.69693000  0.28569300  0.54462800  1
  H  1131  1  0.73337900  0.16280900  0.56246700  1
  H  1132  1  0.66714100  0.16885200  0.59432900  1
  H  1133  1  0.71240800  0.28729000  0.60801600  1
  H  1134  1  0.71315600  0.24378900  0.60862100  1
  H  1143  1  0.70978700  0.32476200  0.56423900  1
  H  1144  1  0.71048100  0.12665800  0.57079500  1
  H  1151  1  0.69315400  0.71356600  0.45400300  1
  H  1152  1  0.69117800  0.67021700  0.45677100  1
  H  1159  1  0.73349000  0.79061100  0.43356600  1
  H  1160  1  0.66704100  0.78403000  0.40207300  1
  H  1161  1  0.71169800  0.66383200  0.39461700  1
  H  1162  1  0.71358100  0.70717900  0.39194100  1
  H  1171  1  0.70397300  0.62972600  0.44031800  1
  H  1172  1  0.71094400  0.82672200  0.42410900  1
  H  1179  1  0.80474200  0.23539300  0.95403700  1
  H  1180  1  0.80667800  0.27874700  0.95678800  1
  H  1187  1  0.76473500  0.15830000  0.93366000  1
  H  1188  1  0.83105100  0.16489200  0.90197500  1
  H  1189  1  0.78663400  0.28506500  0.89451900  1
  H  1190  1  0.78478300  0.24171800  0.89186200  1
  H  1199  1  0.79393700  0.31922300  0.94021600  1
  H  1200  1  0.78721500  0.12219200  0.92410600  1
  H  1207  1  0.48081500  0.42188500  0.70316000  1
  H  1208  1  0.43734600  0.42025400  0.70384500  1
  H  1215  1  0.55973000  0.45770800  0.68632300  1
  H  1216  1  0.55466700  0.39186000  0.65378900  1
  H  1217  1  0.43554300  0.43397700  0.64017800  1
  H  1218  1  0.47899500  0.43573000  0.63960700  1
  H  1227  1  0.39795100  0.43164200  0.68383300  1
  H  1228  1  0.59621400  0.43528700  0.67795800  1
  H  1235  1  0.01726100  0.52704400  0.20315000  1
  H  1236  1  0.06073300  0.52867100  0.20384600  1
  H  1243  1  0.93835400  0.49118800  0.18628900  1
  H  1244  1  0.94343100  0.55700600  0.15371200  1
  H  1245  1  0.06256000  0.51488300  0.14018900  1
  H  1246  1  0.01910800  0.51313600  0.13960600  1
  H  1255  1  0.10013400  0.51726600  0.18385300  1
  H  1256  1  0.90187100  0.51356300  0.17785800  1
  H  1263  1  0.01080600  0.42012100  0.79384100  1
  H  1264  1  0.05416700  0.41776900  0.79149400  1
  H  1271  1  0.93348500  0.45774000  0.81359400  1
  H  1272  1  0.93931500  0.39184200  0.84596700  1
  H  1273  1  0.05965600  0.43259100  0.85484000  1
  H  1274  1  0.01632500  0.43500800  0.85707400  1
  H  1283  1  0.09468500  0.42890700  0.80963100  1
  H  1284  1  0.89712700  0.43537100  0.82285900  1
  H  1291  1  0.48727200  0.52885200  0.29381900  1
  H  1292  1  0.44390600  0.53119900  0.29146600  1
  H  1299  1  0.56459200  0.49120100  0.31361400  1
  H  1300  1  0.55873300  0.55710300  0.34598200  1
  H  1301  1  0.43840900  0.51630900  0.35480000  1
  H  1302  1  0.48173900  0.51390300  0.35704000  1
  H  1311  1  0.40338900  0.52005400  0.30958300  1
  H  1312  1  0.60094200  0.51356100  0.32290900  1
  C  1  1  0.16076200  0.37989300  0.88117200  1
  C  2  1  0.16325200  0.39794700  0.89636800  1
  C  3  1  0.17276200  0.39241700  0.91582500  1
  C  4  1  0.18035000  0.36849300  0.91976800  1
  C  5  1  0.17849000  0.35005900  0.90476800  1
  C  6  1  0.16828800  0.35556200  0.88524900  1
  C  9  1  0.15189700  0.38769400  0.86178500  1
  C  10  1  0.12715500  0.39424700  0.85824100  1
  C  11  1  0.12048300  0.40357500  0.83866000  1
  C  12  1  0.13817600  0.40552200  0.82304800  1
  C  13  1  0.16256700  0.39947800  0.82673900  1
  C  14  1  0.16927000  0.39052500  0.84608300  1
  C  27  1  0.33734000  0.56899500  0.38119200  1
  C  28  1  0.33483000  0.55095200  0.39639500  1
  C  29  1  0.32533100  0.55650100  0.41585100  1
  C  30  1  0.31776400  0.58043600  0.41978500  1
  C  31  1  0.31963200  0.59885600  0.40477300  1
  C  32  1  0.32981900  0.59332900  0.38525300  1
  C  35  1  0.34617600  0.56116300  0.36180600  1
  C  36  1  0.37092100  0.55463500  0.35824400  1
  C  37  1  0.37758200  0.54531200  0.33865800  1
  C  38  1  0.35987500  0.54335700  0.32305900  1
  C  39  1  0.33548000  0.54937100  0.32676800  1
  C  40  1  0.32879300  0.55833300  0.34611200  1
  C  53  1  0.84372700  0.89107100  0.13169200  1
  C  54  1  0.82566200  0.89433500  0.14676000  1
  C  55  1  0.83128500  0.90444300  0.16597100  1
  C  56  1  0.85525400  0.91199300  0.16973800  1
  C  57  1  0.87376000  0.90918800  0.15490000  1
  C  58  1  0.86813700  0.89845600  0.13559900  1
  C  61  1  0.83597300  0.88077800  0.11282400  1
  C  62  1  0.83052600  0.85557900  0.11048100  1
  C  63  1  0.82103200  0.84734500  0.09140300  1
  C  64  1  0.81808100  0.86386400  0.07501900  1
  C  65  1  0.82307900  0.88870000  0.07754500  1
  C  66  1  0.83209100  0.89700600  0.09643100  1
  C  79  1  0.65430400  0.05779100  0.63170900  1
  C  80  1  0.67238700  0.05454900  0.64676400  1
  C  81  1  0.66680000  0.04440600  0.66597000  1
  C  82  1  0.64284300  0.03683100  0.66975400  1
  C  83  1  0.62431300  0.03963000  0.65493400  1
  C  84  1  0.62990600  0.05037400  0.63563200  1
  C  87  1  0.66202300  0.06809700  0.61283400  1
  C  88  1  0.66748800  0.09329300  0.61049400  1
  C  89  1  0.67696400  0.10152600  0.59141000  1
  C  90  1  0.67990600  0.08500700  0.57502400  1
  C  91  1  0.67490600  0.06017100  0.57755300  1
  C  92  1  0.66590200  0.05186700  0.59644200  1
  C  105  1  0.33602300  0.37798300  0.61209900  1
  C  106  1  0.33323900  0.39549300  0.59650200  1
  C  107  1  0.32427600  0.38896900  0.57712300  1
  C  108  1  0.31824900  0.36461500  0.57326800  1
  C  109  1  0.32021300  0.34675900  0.58874600  1
  C  110  1  0.32945400  0.35327600  0.60839800  1
  C  113  1  0.34396800  0.38666900  0.63150100  1
  C  114  1  0.36834900  0.39408600  0.63548900  1
  C  115  1  0.37397300  0.40434700  0.65496000  1
  C  116  1  0.35564100  0.40627600  0.67004300  1
  C  117  1  0.33169000  0.39866600  0.66622500  1
  C  118  1  0.32600300  0.38926200  0.64675700  1
  C  131  1  0.16206400  0.57088000  0.11209300  1
  C  132  1  0.16489100  0.55337100  0.09649900  1
  C  133  1  0.17386300  0.55990600  0.07712500  1
  C  134  1  0.17985100  0.58427300  0.07327300  1
  C  135  1  0.17786600  0.60212200  0.08875400  1
  C  136  1  0.16862400  0.59559100  0.10840300  1
  C  139  1  0.15413300  0.56217300  0.13149100  1
  C  140  1  0.12974700  0.55477200  0.13548300  1
  C  141  1  0.12412300  0.54452300  0.15495800  1
  C  142  1  0.14245600  0.54259100  0.17004000  1
  C  143  1  0.16640400  0.55021000  0.16622400  1
  C  144  1  0.17209400  0.55960000  0.14675200  1
  C  157  1  0.65252700  0.89235600  0.36127200  1
  C  158  1  0.67008000  0.89600800  0.34584900  1
  C  159  1  0.66355000  0.90584000  0.32677700  1
  C  160  1  0.63912100  0.91161000  0.32298500  1
  C  161  1  0.62115300  0.90850600  0.33824500  1
  C  162  1  0.62775900  0.89877600  0.35771200  1
  C  165  1  0.66114600  0.88308900  0.38024500  1
  C  166  1  0.66715000  0.85815200  0.38332600  1
  C  167  1  0.67745800  0.85109100  0.40242900  1
  C  168  1  0.68061200  0.86848500  0.41813600  1
  C  169  1  0.67413900  0.89295200  0.41525000  1
  C  170  1  0.66496300  0.90012800  0.39604600  1
  C  183  1  0.84559000  0.05651400  0.86129200  1
  C  184  1  0.82802500  0.05289700  0.84587400  1
  C  185  1  0.83452200  0.04303600  0.82680600  1
  C  186  1  0.85894100  0.03723600  0.82300200  1
  C  187  1  0.87692800  0.04033000  0.83824900  1
  C  188  1  0.87034800  0.05006600  0.85772000  1
  C  191  1  0.83700300  0.06580400  0.88026800  1
  C  192  1  0.83100400  0.09074500  0.88333900  1
  C  193  1  0.82071300  0.09782200  0.90244500  1
  C  194  1  0.81755600  0.08043600  0.91816000  1
  C  195  1  0.82400900  0.05596400  0.91527800  1
  C  196  1  0.83317200  0.04877300  0.89607400  1
  C  209  1  0.83257800  0.56913700  0.11642900  1
  C  210  1  0.82935100  0.55122200  0.10123000  1
  C  211  1  0.81928900  0.55702200  0.08203000  1
  C  212  1  0.81164000  0.58100600  0.07844900  1
  C  213  1  0.81427700  0.59931700  0.09347800  1
  C  214  1  0.82513300  0.59356400  0.11269800  1
  C  217  1  0.84285300  0.56123800  0.13526400  1
  C  218  1  0.86806600  0.55588200  0.13764200  1
  C  219  1  0.87630300  0.54642600  0.15673600  1
  C  220  1  0.85975500  0.54339900  0.17309100  1
  C  221  1  0.83490100  0.54828600  0.17052500  1
  C  222  1  0.82660500  0.55726600  0.15162600  1
  C  235  1  0.66545600  0.37980100  0.61637700  1
  C  236  1  0.66870300  0.39769800  0.60116700  1
  C  237  1  0.67873300  0.39186800  0.58196200  1
  C  238  1  0.68634300  0.36786900  0.57838900  1
  C  239  1  0.68369300  0.34957400  0.59343100  1
  C  240  1  0.67286400  0.35536100  0.61265600  1
  C  243  1  0.65521700  0.38773100  0.63521600  1
  C  244  1  0.63000400  0.39307700  0.63762100  1
  C  245  1  0.62179100  0.40251200  0.65672700  1
  C  246  1  0.63835900  0.40552400  0.67306900  1
  C  247  1  0.66321300  0.40065100  0.67047900  1
  C  248  1  0.67148400  0.39168000  0.65156900  1
  C  261  1  0.15789200  0.05766800  0.86780600  1
  C  262  1  0.17478700  0.05323400  0.85201700  1
  C  263  1  0.16741800  0.04335300  0.83312400  1
  C  264  1  0.14295400  0.03668200  0.83059000  1
  C  265  1  0.12571200  0.04044600  0.84632400  1
  C  266  1  0.13294000  0.05150000  0.86508500  1
  C  269  1  0.16719700  0.06802800  0.88611900  1
  C  270  1  0.17258800  0.09326600  0.88817100  1
  C  271  1  0.18270100  0.10169800  0.90696300  1
  C  272  1  0.18645700  0.08529000  0.92331500  1
  C  273  1  0.18159000  0.06039600  0.92101400  1
  C  274  1  0.17183500  0.05192800  0.90244700  1
  C  287  1  0.34019000  0.89123500  0.36781000  1
  C  288  1  0.32327700  0.89566500  0.35203400  1
  C  289  1  0.33062200  0.90555100  0.33313400  1
  C  290  1  0.35508700  0.91220700  0.33057900  1
  C  291  1  0.37234500  0.90845300  0.34630000  1
  C  292  1  0.36513800  0.89740200  0.36506800  1
  C  295  1  0.33090700  0.88088500  0.38613400  1
  C  296  1  0.32550400  0.85564900  0.38819800  1
  C  297  1  0.31543100  0.84722700  0.40700900  1
  C  298  1  0.31170400  0.86364500  0.42335900  1
  C  299  1  0.31657100  0.88853700  0.42104300  1
  C  300  1  0.32629700  0.89699300  0.40246200  1
  C  313  1  0.66674000  0.57111200  0.38673500  1
  C  314  1  0.67029100  0.55365100  0.40224600  1
  C  315  1  0.67994400  0.56029500  0.42135800  1
  C  316  1  0.68569800  0.58475000  0.42507900  1
  C  317  1  0.68285700  0.60258700  0.40967700  1
  C  318  1  0.67313300  0.59589900  0.39022900  1
  C  321  1  0.65755800  0.56242000  0.36775500  1
  C  322  1  0.63262500  0.55646000  0.36458600  1
  C  323  1  0.62562100  0.54621100  0.34544400  1
  C  324  1  0.64308600  0.54305000  0.32979100  1
  C  325  1  0.66755300  0.54946000  0.33276700  1
  C  326  1  0.67466200  0.55859100  0.35200300  1
  C  339  1  0.83134500  0.37785600  0.88675000  1
  C  340  1  0.82776700  0.39530700  0.90226600  1
  C  341  1  0.81813300  0.38863900  0.92138000  1
  C  342  1  0.81242900  0.36417200  0.92509300  1
  C  343  1  0.81527500  0.34634900  0.90967900  1
  C  344  1  0.82497500  0.35306000  0.89023000  1
  C  347  1  0.84050600  0.38657500  0.86777100  1
  C  348  1  0.86544200  0.39252400  0.86459100  1
  C  349  1  0.87243500  0.40276900  0.84544400  1
  C  350  1  0.85495800  0.40594000  0.82980000  1
  C  351  1  0.83049900  0.39950700  0.83277900  1
  C  352  1  0.82339700  0.39038600  0.85202200  1
  C  365  1  0.34201400  0.05676400  0.63578000  1
  C  366  1  0.32590900  0.05218700  0.65211800  1
  C  367  1  0.33434300  0.04232900  0.67066000  1
  C  368  1  0.35920600  0.03726800  0.67290900  1
  C  369  1  0.37560200  0.04094300  0.65653700  1
  C  370  1  0.36721600  0.05118000  0.63778300  1
  C  373  1  0.33168600  0.06606500  0.61745300  1
  C  374  1  0.32569100  0.09104500  0.61464500  1
  C  375  1  0.31480600  0.09828600  0.59581300  1
  C  376  1  0.31103000  0.08100900  0.58010900  1
  C  377  1  0.31753000  0.05651600  0.58273400  1
  C  378  1  0.32724200  0.04914600  0.60168700  1
  C  391  1  0.15605300  0.89217300  0.13573000  1
  C  392  1  0.17217900  0.89671400  0.15206100  1
  C  393  1  0.16377400  0.90656400  0.17061300  1
  C  394  1  0.13891400  0.91162300  0.17289500  1
  C  395  1  0.12249600  0.90797300  0.15653400  1
  C  396  1  0.13085400  0.89775700  0.13776300  1
  C  399  1  0.16634600  0.88285700  0.11739500  1
  C  400  1  0.17232700  0.85787400  0.11459100  1
  C  401  1  0.18318000  0.85061600  0.09575000  1
  C  402  1  0.18694500  0.86788300  0.08003500  1
  C  403  1  0.18046700  0.89238300  0.08266100  1
  C  404  1  0.17078100  0.89976700  0.10162000  1
  C  417  1  0.28106700  0.39810100  0.70196900  1
  C  418  1  0.29244400  0.40668900  0.72003800  1
  C  419  1  0.27906700  0.41017300  0.73813100  1
  C  420  1  0.25395000  0.40513200  0.73860100  1
  C  421  1  0.24238200  0.39689200  0.72062400  1
  C  422  1  0.25578000  0.39345000  0.70255500  1
  C  425  1  0.24076200  0.40682500  0.75717900  1
  C  426  1  0.23498600  0.42988900  0.76561300  1
  C  427  1  0.22132900  0.43108800  0.78393200  1
  C  428  1  0.21320000  0.40980300  0.79376000  1
  C  429  1  0.21944000  0.38702300  0.78541800  1
  C  430  1  0.23317500  0.38524400  0.76722500  1
  C  441  1  0.19927800  0.41115100  0.81121300  1
  C  442  1  0.29398900  0.39331500  0.68415600  1
  C  445  1  0.21701200  0.55081100  0.20198000  1
  C  446  1  0.20563100  0.54221500  0.22004500  1
  C  447  1  0.21900300  0.53873700  0.23814000  1
  C  448  1  0.24411800  0.54377600  0.23861400  1
  C  449  1  0.25569500  0.55200100  0.22063700  1
  C  450  1  0.24230000  0.55545200  0.20256700  1
  C  453  1  0.25729700  0.54208300  0.25719700  1
  C  454  1  0.26304600  0.51901800  0.26564400  1
  C  455  1  0.27668400  0.51781600  0.28397300  1
  C  456  1  0.28483500  0.53909900  0.29379000  1
  C  457  1  0.27862400  0.56187900  0.28543700  1
  C  458  1  0.26490000  0.56366100  0.26723700  1
  C  469  1  0.29875000  0.53774500  0.31124800  1
  C  470  1  0.20409300  0.55559500  0.18416500  1
  C  473  1  0.82513700  0.00710900  0.95239900  1
  C  474  1  0.81577200  0.01804200  0.97036200  1
  C  475  1  0.81136800  0.00412300  0.98802600  1
  C  476  1  0.81620300  0.97894600  0.98810000  1
  C  477  1  0.82511900  0.96785900  0.97013100  1
  C  478  1  0.82954000  0.98178600  0.95251000  1
  C  481  1  0.81420100  0.96530100  0.00642800  1
  C  482  1  0.79103800  0.95938500  0.01459200  1
  C  483  1  0.78961200  0.94543800  0.03275300  1
  C  484  1  0.81076300  0.93713200  0.04269500  1
  C  485  1  0.83363500  0.94351800  0.03459700  1
  C  486  1  0.83564800  0.95752700  0.01657700  1
  C  497  1  0.80925200  0.92348000  0.06032600  1
  C  498  1  0.83122900  0.02056000  0.93523000  1
  C  501  1  0.67300000  0.94182300  0.45236000  1
  C  502  1  0.68236700  0.93089000  0.47032500  1
  C  503  1  0.68674800  0.94480600  0.48799500  1
  C  504  1  0.68190700  0.96998200  0.48806700  1
  C  505  1  0.67302800  0.98107500  0.47008900  1
  C  506  1  0.66861200  0.96714800  0.45246700  1
  C  509  1  0.68387800  0.98361500  0.50640400  1
  C  510  1  0.70702600  0.98952000  0.51460200  1
  C  511  1  0.70842300  0.00344800  0.53277400  1
  C  512  1  0.68725500  0.01175400  0.54269200  1
  C  513  1  0.66439700  0.00537900  0.53456000  1
  C  514  1  0.66241500  0.99138500  0.51652800  1
  C  525  1  0.68873500  0.02539500  0.56033200  1
  C  526  1  0.66692000  0.92837000  0.43519000  1
  C  529  1  0.71651500  0.55061300  0.29573300  1
  C  530  1  0.70557200  0.54129700  0.27775500  1
  C  531  1  0.71948100  0.53692100  0.26007900  1
  C  532  1  0.74466100  0.54173600  0.26000600  1
  C  533  1  0.75575700  0.55061600  0.27798300  1
  C  534  1  0.74183900  0.55500800  0.29561500  1
  C  537  1  0.75830400  0.53970500  0.24167700  1
  C  538  1  0.76413400  0.51652600  0.23349900  1
  C  539  1  0.77805400  0.51506200  0.21532700  1
  C  540  1  0.78641600  0.53619000  0.20538600  1
  C  541  1  0.78012400  0.55907900  0.21350000  1
  C  542  1  0.76614100  0.56113200  0.23153300  1
  C  553  1  0.80002500  0.53464300  0.18773300  1
  C  554  1  0.70307200  0.55664700  0.31292300  1
  C  557  1  0.78152600  0.39833500  0.79575200  1
  C  558  1  0.79247300  0.40765600  0.77777700  1
  C  559  1  0.77857000  0.41200900  0.76009400  1
  C  560  1  0.75339100  0.40718300  0.76001600  1
  C  561  1  0.74228600  0.39833300  0.77799800  1
  C  562  1  0.75620200  0.39394500  0.79563400  1
  C  565  1  0.73975900  0.40920100  0.74167900  1
  C  566  1  0.73396200  0.43237300  0.73347200  1
  C  567  1  0.72007100  0.43382400  0.71528200  1
  C  568  1  0.71169800  0.41268800  0.70535700  1
  C  569  1  0.71795500  0.38980500  0.71350300  1
  C  570  1  0.73191100  0.38776700  0.73155000  1
  C  581  1  0.69811000  0.41422400  0.68769200  1
  C  582  1  0.79496900  0.39231400  0.81294800  1
  C  585  1  0.17792000  0.94040000  0.04503700  1
  C  586  1  0.18782600  0.92987300  0.02712100  1
  C  587  1  0.19231100  0.94412800  0.00966800  1
  C  588  1  0.18702000  0.96921700  0.00978900  1
  C  589  1  0.17751100  0.97987700  0.02772800  1
  C  590  1  0.17297200  0.96561200  0.04513100  1
  C  593  1  0.18934300  0.98320100  0.99167600  1
  C  594  1  0.21266000  0.98918800  0.98385800  1
  C  595  1  0.21443700  0.00336800  0.96585100  1
  C  596  1  0.19347000  0.01183900  0.95574500  1
  C  597  1  0.17044200  0.00541000  0.96349600  1
  C  598  1  0.16808400  0.99116600  0.98135100  1
  C  609  1  0.19526200  0.02554100  0.93818100  1
  C  610  1  0.17179100  0.92658700  0.06194200  1
  C  613  1  0.32006400  0.00847700  0.54512400  1
  C  614  1  0.31017100  0.01900600  0.52720300  1
  C  615  1  0.30571000  0.00475000  0.50974500  1
  C  616  1  0.31099200  0.97965900  0.50987400  1
  C  617  1  0.32045100  0.96899200  0.52782800  1
  C  618  1  0.32498200  0.98325900  0.54523100  1
  C  621  1  0.30870800  0.96568300  0.49175000  1
  C  622  1  0.28540900  0.95972000  0.48388400  1
  C  623  1  0.28367700  0.94555800  0.46586300  1
  C  624  1  0.30466500  0.93707900  0.45579400  1
  C  625  1  0.32767400  0.94348600  0.46359700  1
  C  626  1  0.32999200  0.95771100  0.48146700  1
  C  637  1  0.30291500  0.92339200  0.43821800  1
  C  638  1  0.32619400  0.02229400  0.56202600  1
  C  641  1  0.78118000  0.90367100  0.20205000  1
  C  642  1  0.79269500  0.91250000  0.21997200  1
  C  643  1  0.77944300  0.91623100  0.23808200  1
  C  644  1  0.75433300  0.91119800  0.23870000  1
  C  645  1  0.74263100  0.90271200  0.22086400  1
  C  646  1  0.75590800  0.89901200  0.20277100  1
  C  649  1  0.74136300  0.91297500  0.25736200  1
  C  650  1  0.73565600  0.93608000  0.26575100  1
  C  651  1  0.72229600  0.93735500  0.28421900  1
  C  652  1  0.71445900  0.91609000  0.29422900  1
  C  653  1  0.72065000  0.89327400  0.28594400  1
  C  654  1  0.73406200  0.89142300  0.26759400  1
  C  665  1  0.70061500  0.91740900  0.31169900  1
  C  666  1  0.79405100  0.89846700  0.18432600  1
  C  669  1  0.71692900  0.04520500  0.70203100  1
  C  670  1  0.70541400  0.03638600  0.71995500  1
  C  671  1  0.71866300  0.03268000  0.73807100  1
  C  672  1  0.74377200  0.03771500  0.73868600  1
  C  673  1  0.75547900  0.04616600  0.72084300  1
  C  674  1  0.74220200  0.04985600  0.70274700  1
  C  677  1  0.75673600  0.03595400  0.75735500  1
  C  678  1  0.76240500  0.01285600  0.76577600  1
  C  679  1  0.77574300  0.01159400  0.78425600  1
  C  680  1  0.78361100  0.03286500  0.79424000  1
  C  681  1  0.77746500  0.05567700  0.78591800  1
  C  682  1  0.76406500  0.05751400  0.76756200  1
  C  693  1  0.79743300  0.03155700  0.81172100  1
  C  694  1  0.70405500  0.05038800  0.68430200  1
  C  697  1  0.32443700  0.50557100  0.45135800  1
  C  698  1  0.31596600  0.51729200  0.46931900  1
  C  699  1  0.31289500  0.50434900  0.48768200  1
  C  700  1  0.31822900  0.47931500  0.48855100  1
  C  701  1  0.32639000  0.46739100  0.47071600  1
  C  702  1  0.32941600  0.48035900  0.45237400  1
  C  705  1  0.31671100  0.46654300  0.50733900  1
  C  706  1  0.29371500  0.46081700  0.51592800  1
  C  707  1  0.29267300  0.44751800  0.53443900  1
  C  708  1  0.31405200  0.43971400  0.54430000  1
  C  709  1  0.33676300  0.44590700  0.53580700  1
  C  710  1  0.33838300  0.45928000  0.51741400  1
  C  721  1  0.31286400  0.42592100  0.56182100  1
  C  722  1  0.32855100  0.51803800  0.43317300  1
  C  725  1  0.17366900  0.44336400  0.95131200  1
  C  726  1  0.18213400  0.43164000  0.96927400  1
  C  727  1  0.18520400  0.44457800  0.98763800  1
  C  728  1  0.17987600  0.46961300  0.98850800  1
  C  729  1  0.17173600  0.48154600  0.97067100  1
  C  730  1  0.16870600  0.46857800  0.95232800  1
  C  733  1  0.18139500  0.48237700  0.00730100  1
  C  734  1  0.20439300  0.48806900  0.01590700  1
  C  735  1  0.20543500  0.50134700  0.03442800  1
  C  736  1  0.18405800  0.50917700  0.04427800  1
  C  737  1  0.16134800  0.50302100  0.03576700  1
  C  738  1  0.15972500  0.48966000  0.01736900  1
  C  749  1  0.18525500  0.52295700  0.06180700  1
  C  750  1  0.16956200  0.43090100  0.93312600  1
  C  753  1  0.21532800  0.04569000  0.79534600  1
  C  754  1  0.20462100  0.03584000  0.77748100  1
  C  755  1  0.21869800  0.03140200  0.75991600  1
  C  756  1  0.24378900  0.03668600  0.75986400  1
  C  757  1  0.25463300  0.04612500  0.77775100  1
  C  758  1  0.24054700  0.05061300  0.79526700  1
  C  761  1  0.25758400  0.03444100  0.74163800  1
  C  762  1  0.26351600  0.01115800  0.73372000  1
  C  763  1  0.27752900  0.00946200  0.71561100  1
  C  764  1  0.28588300  0.03047200  0.70550200  1
  C  765  1  0.27950600  0.05346500  0.71335600  1
  C  766  1  0.26542800  0.05574400  0.73131300  1
  C  777  1  0.29947600  0.02875400  0.68787100  1
  C  778  1  0.20168100  0.05182500  0.81235200  1
  C  781  1  0.28265900  0.90329500  0.29539300  1
  C  782  1  0.29338600  0.91312400  0.27752800  1
  C  783  1  0.27932500  0.91754600  0.25995100  1
  C  784  1  0.25422900  0.91228700  0.25989400  1
  C  785  1  0.24335900  0.90290600  0.27779000  1
  C  786  1  0.25743100  0.89841600  0.29531400  1
  C  789  1  0.24045800  0.91450000  0.24165300  1
  C  790  1  0.23456300  0.93776900  0.23368300  1
  C  791  1  0.22058800  0.93943000  0.21555500  1
  C  792  1  0.21222600  0.91840100  0.20547300  1
  C  793  1  0.21856700  0.89542400  0.21337700  1
  C  794  1  0.23260800  0.89317900  0.23135700  1
  C  805  1  0.19865900  0.92008500  0.18782700  1
  C  806  1  0.29629400  0.89715400  0.31240600  1
  C  809  1  0.67759700  0.44178600  0.54569900  1
  C  810  1  0.68643200  0.43039800  0.52772800  1
  C  811  1  0.69020800  0.44379600  0.50969500  1
  C  812  1  0.68522000  0.46892100  0.50921400  1
  C  813  1  0.67674000  0.48049100  0.52711300  1
  C  814  1  0.67298600  0.46707100  0.54512400  1
  C  817  1  0.68704400  0.48207100  0.49063900  1
  C  818  1  0.71016500  0.48782400  0.48230700  1
  C  819  1  0.71148500  0.50140800  0.46395700  1
  C  820  1  0.69025300  0.50945200  0.45401100  1
  C  821  1  0.66741500  0.50321200  0.46223700  1
  C  822  1  0.66551900  0.48956800  0.48046300  1
  C  833  1  0.69163900  0.52339200  0.43659000  1
  C  834  1  0.67233200  0.42879300  0.56334200  1
  C  837  1  0.82041800  0.50707200  0.04579600  1
  C  838  1  0.81159800  0.51846100  0.02782000  1
  C  839  1  0.80782400  0.50506100  0.00978700  1
  C  840  1  0.81280300  0.47993200  0.00931300  1
  C  841  1  0.82125000  0.46835900  0.02722100  1
  C  842  1  0.82500600  0.48178200  0.04522900  1
  C  845  1  0.81099400  0.46678700  0.99073300  1
  C  846  1  0.78788000  0.46106600  0.98237300  1
  C  847  1  0.78657200  0.44750000  0.96401000  1
  C  848  1  0.80781300  0.43943200  0.95408800  1
  C  849  1  0.83064200  0.44563800  0.96234400  1
  C  850  1  0.83252600  0.45927100  0.98057800  1
  C  861  1  0.80643700  0.42551400  0.93665300  1
  C  862  1  0.82567500  0.52006900  0.06343800  1
  C  865  1  0.20104000  0.29180100  0.92225300  1
  C  866  1  0.20667900  0.27953900  0.90382400  1
  C  867  1  0.20857400  0.25407400  0.90337100  1
  C  868  1  0.20495400  0.24031800  0.92135100  1
  C  869  1  0.19986100  0.25252200  0.93986700  1
  C  870  1  0.19805600  0.27800600  0.94033100  1
  C  873  1  0.20472100  0.21454300  0.92056000  1
  C  874  1  0.22369100  0.20089000  0.92971200  1
  C  875  1  0.22271700  0.17520600  0.92912200  1
  C  876  1  0.20327900  0.16269500  0.91970100  1
  C  877  1  0.18460200  0.17672200  0.91068000  1
  C  878  1  0.18503700  0.20239000  0.91097500  1
  C  889  1  0.20276000  0.13738400  0.91977200  1
  C  890  1  0.19785900  0.31670500  0.92275100  1
  C  893  1  0.29703900  0.65711200  0.42222200  1
  C  894  1  0.29149700  0.66940600  0.40378500  1
  C  895  1  0.28962500  0.69487000  0.40335400  1
  C  896  1  0.29316500  0.70860000  0.42136100  1
  C  897  1  0.29813800  0.69636200  0.43988500  1
  C  898  1  0.29993800  0.67087800  0.44032500  1
  C  901  1  0.29341000  0.73437800  0.42059600  1
  C  902  1  0.27446100  0.74803300  0.42977900  1
  C  903  1  0.27544500  0.77371700  0.42921000  1
  C  904  1  0.29487600  0.78623100  0.41978500  1
  C  905  1  0.31353800  0.77220600  0.41074100  1
  C  906  1  0.31308900  0.74653800  0.41100700  1
  C  917  1  0.29540800  0.81154100  0.41987400  1
  C  918  1  0.30020300  0.63220700  0.42270400  1
  C  921  1  0.93290700  0.92870300  0.17294800  1
  C  922  1  0.94484400  0.93653800  0.15493900  1
  C  923  1  0.97033000  0.93808700  0.15421700  1
  C  924  1  0.98436400  0.93196500  0.17153700  1
  C  925  1  0.97254200  0.92454200  0.18965200  1
  C  926  1  0.94705600  0.92305100  0.19037300  1
  C  929  1  0.01006500  0.93153300  0.17036400  1
  C  930  1  0.02396900  0.95083100  0.17869100  1
  C  931  1  0.04963000  0.94957000  0.17791200  1
  C  932  1  0.06182400  0.92952900  0.16910500  1
  C  933  1  0.04750800  0.91056300  0.16085500  1
  C  934  1  0.02185100  0.91127200  0.16136100  1
  C  945  1  0.08712400  0.92872500  0.16903900  1
  C  946  1  0.90796800  0.92593300  0.17366300  1
  C  949  1  0.56516600  0.02026400  0.67307200  1
  C  950  1  0.55328300  0.01204600  0.65515800  1
  C  951  1  0.52779800  0.01048100  0.65440700  1
  C  952  1  0.51372000  0.01696800  0.67160700  1
  C  953  1  0.52548400  0.02476800  0.68963200  1
  C  954  1  0.55096700  0.02628600  0.69038100  1
  C  957  1  0.48802700  0.01737500  0.67037700  1
  C  958  1  0.47412600  0.99800400  0.67857900  1
  C  959  1  0.44846400  0.99924800  0.67776400  1
  C  960  1  0.43627300  0.01934200  0.66904100  1
  C  961  1  0.45059000  0.03837800  0.66090800  1
  C  962  1  0.47624700  0.03768500  0.66144900  1
  C  973  1  0.41097400  0.02013100  0.66894700  1
  C  974  1  0.59010200  0.02305100  0.67379900  1
  C  977  1  0.29939600  0.28727400  0.57251600  1
  C  978  1  0.29265800  0.27630000  0.59126600  1
  C  979  1  0.29020400  0.25094700  0.59280100  1
  C  980  1  0.29428200  0.23601500  0.57558100  1
  C  981  1  0.30049200  0.24689800  0.55672900  1
  C  982  1  0.30289300  0.27227300  0.55519600  1
  C  985  1  0.29398400  0.21034700  0.57755300  1
  C  986  1  0.27469500  0.19651200  0.56910600  1
  C  987  1  0.27519300  0.17088500  0.57084900  1
  C  988  1  0.29445800  0.15863100  0.58075000  1
  C  989  1  0.31344000  0.17286000  0.58907500  1
  C  990  1  0.31348500  0.19847000  0.58762300  1
  C  1001  1  0.29469400  0.13333700  0.58161300  1
  C  1002  1  0.30290200  0.31209100  0.57096600  1
  C  1005  1  0.19867700  0.66161400  0.07254000  1
  C  1006  1  0.20535000  0.67261200  0.09129600  1
  C  1007  1  0.20777800  0.69796900  0.09281700  1
  C  1008  1  0.20374400  0.71287800  0.07557500  1
  C  1009  1  0.19761600  0.70197000  0.05671600  1
  C  1010  1  0.19522400  0.67659100  0.05520000  1
  C  1013  1  0.20403100  0.73855000  0.07753100  1
  C  1014  1  0.22328900  0.75239000  0.06904000  1
  C  1015  1  0.22278600  0.77801700  0.07077200  1
  C  1016  1  0.20354100  0.79027000  0.08070100  1
  C  1017  1  0.18458400  0.77603800  0.08906300  1
  C  1018  1  0.18455000  0.75042700  0.08763000  1
  C  1029  1  0.20329900  0.81556600  0.08155700  1
  C  1030  1  0.19519900  0.63679300  0.07100100  1
  C  1033  1  0.56071500  0.92522600  0.32114600  1
  C  1034  1  0.55032400  0.93598500  0.33877200  1
  C  1035  1  0.52498300  0.93836600  0.34064800  1
  C  1036  1  0.50954500  0.93014700  0.32487000  1
  C  1037  1  0.51978900  0.91976800  0.30711100  1
  C  1038  1  0.54513100  0.91748700  0.30522000  1
  C  1041  1  0.48400400  0.93042500  0.32747300  1
  C  1042  1  0.47004800  0.95032200  0.32030100  1
  C  1043  1  0.44446200  0.94967400  0.32239200  1
  C  1044  1  0.43241900  0.92969100  0.33143400  1
  C  1045  1  0.44681600  0.91016600  0.33859200  1
  C  1046  1  0.47238900  0.91024100  0.33673700  1
  C  1057  1  0.40714300  0.92930100  0.33255100  1
  C  1058  1  0.58551200  0.92172500  0.31939400  1
  C  1061  1  0.93735000  0.02370300  0.82108400  1
  C  1062  1  0.94771900  0.01263900  0.83858300  1
  C  1063  1  0.97306200  0.01026900  0.84046800  1
  C  1064  1  0.98851600  0.01881500  0.82482500  1
  C  1065  1  0.97829100  0.02948900  0.80718300  1
  C  1066  1  0.95295000  0.03176200  0.80528400  1
  C  1069  1  0.01405200  0.01852400  0.82746100  1
  C  1070  1  0.02799000  0.99853800  0.82043800  1
  C  1071  1  0.05357500  0.99916900  0.82255300  1
  C  1072  1  0.06563300  0.01922100  0.83147600  1
  C  1073  1  0.05125300  0.03883200  0.83849000  1
  C  1074  1  0.02568100  0.03877400  0.83661100  1
  C  1085  1  0.09090700  0.01959100  0.83261300  1
  C  1086  1  0.91255200  0.02719500  0.81934200  1
  C  1089  1  0.79341900  0.65824800  0.07624700  1
  C  1090  1  0.78832800  0.67085700  0.09462100  1
  C  1091  1  0.78782000  0.69638900  0.09500100  1
  C  1092  1  0.79232200  0.70985600  0.07700600  1
  C  1093  1  0.79687200  0.69732900  0.05854300  1
  C  1094  1  0.79729200  0.67178500  0.05815100  1
  C  1097  1  0.79392400  0.73558400  0.07772300  1
  C  1098  1  0.77564700  0.75016800  0.06859700  1
  C  1099  1  0.77793400  0.77576900  0.06916100  1
  C  1100  1  0.79801600  0.78728800  0.07852200  1
  C  1101  1  0.81599900  0.77234200  0.08749400  1
  C  1102  1  0.81424800  0.74672700  0.08723000  1
  C  1113  1  0.79969800  0.81254900  0.07856500  1
  C  1114  1  0.79544300  0.63323300  0.07585100  1
  C  1117  1  0.70459400  0.29063400  0.57625400  1
  C  1118  1  0.70957300  0.27801800  0.59464600  1
  C  1119  1  0.71007400  0.25248500  0.59501900  1
  C  1120  1  0.70567900  0.23902200  0.57700100  1
  C  1121  1  0.70126500  0.25156000  0.55851900  1
  C  1122  1  0.70083800  0.27710400  0.55813700  1
  C  1125  1  0.70407100  0.21329300  0.57770900  1
  C  1126  1  0.72231400  0.19870300  0.56853700  1
  C  1127  1  0.72002600  0.17310300  0.56910100  1
  C  1128  1  0.69997400  0.16158300  0.57850700  1
  C  1129  1  0.68202000  0.17652900  0.58751900  1
  C  1130  1  0.68377500  0.20214500  0.58725900  1
  C  1141  1  0.69829200  0.13632200  0.57855600  1
  C  1142  1  0.70256800  0.31565000  0.57585800  1
  C  1145  1  0.70119100  0.66285500  0.42595100  1
  C  1146  1  0.70796700  0.67407200  0.40731200  1
  C  1147  1  0.70918400  0.69951500  0.40572500  1
  C  1148  1  0.70380600  0.71428900  0.42278500  1
  C  1149  1  0.69753600  0.70319500  0.44153300  1
  C  1150  1  0.69636300  0.67773800  0.44311700  1
  C  1153  1  0.70293100  0.73992900  0.42074700  1
  C  1154  1  0.72157500  0.75463700  0.42916700  1
  C  1155  1  0.71990600  0.78021000  0.42739600  1
  C  1156  1  0.70009200  0.79156600  0.41749900  1
  C  1157  1  0.68178000  0.77647200  0.40918800  1
  C  1158  1  0.68290800  0.75088300  0.41066700  1
  C  1169  1  0.69881000  0.81682800  0.41650300  1
  C  1170  1  0.69875300  0.63791200  0.42751500  1
  C  1173  1  0.79690500  0.28607400  0.92590900  1
  C  1174  1  0.79026100  0.27484000  0.90724500  1
  C  1175  1  0.78906600  0.24939600  0.90566700  1
  C  1176  1  0.79433500  0.23463500  0.92276300  1
  C  1177  1  0.80045200  0.24575100  0.94153700  1
  C  1178  1  0.80161800  0.27121000  0.94310800  1
  C  1181  1  0.79521900  0.20899100  0.92074000  1
  C  1182  1  0.77661900  0.19427500  0.92922000  1
  C  1183  1  0.77828800  0.16870200  0.92744900  1
  C  1184  1  0.79806900  0.15735000  0.91750100  1
  C  1185  1  0.81634300  0.17244700  0.90913800  1
  C  1186  1  0.81520700  0.19803700  0.91060600  1
  C  1197  1  0.79935100  0.13208800  0.91650300  1
  C  1198  1  0.79932000  0.31101900  0.92746800  1
  C  1201  1  0.43229900  0.42692300  0.67207500  1
  C  1202  1  0.44484200  0.43171400  0.65361200  1
  C  1203  1  0.47035500  0.43281000  0.65326000  1
  C  1204  1  0.48389500  0.42917400  0.67135900  1
  C  1205  1  0.47140100  0.42500200  0.68990600  1
  C  1206  1  0.44586800  0.42403000  0.69028000  1
  C  1209  1  0.50966700  0.42795100  0.67067500  1
  C  1210  1  0.52400100  0.44625000  0.68006300  1
  C  1211  1  0.54963200  0.44431600  0.67952900  1
  C  1212  1  0.56145000  0.42456800  0.66993900  1
  C  1213  1  0.54677100  0.40654800  0.66071400  1
  C  1214  1  0.52113400  0.40794500  0.66094700  1
  C  1225  1  0.58673100  0.42319600  0.66994000  1
  C  1226  1  0.40734100  0.42424600  0.67245000  1
  C  1229  1  0.06579000  0.52197400  0.17208200  1
  C  1230  1  0.05325500  0.51714400  0.15362200  1
  C  1231  1  0.02774300  0.51605400  0.15326100  1
  C  1232  1  0.01419500  0.51972500  0.17135200  1
  C  1233  1  0.02668100  0.52391400  0.18990100  1
  C  1234  1  0.05221200  0.52490200  0.19027900  1
  C  1237  1  0.98842400  0.52094200  0.17065500  1
  C  1238  1  0.97408800  0.50264900  0.18004600  1
  C  1239  1  0.94845500  0.50457600  0.17949500  1
  C  1240  1  0.93664200  0.52431700  0.16988500  1
  C  1241  1  0.95132400  0.54233100  0.16066200  1
  C  1242  1  0.97696100  0.54093800  0.16090700  1
  C  1253  1  0.91135900  0.52567700  0.16986800  1
  C  1254  1  0.09074800  0.52464800  0.17246200  1
  C  1257  1  0.06106100  0.42485500  0.82295000  1
  C  1258  1  0.04960600  0.43018000  0.84181300  1
  C  1259  1  0.02416400  0.43169500  0.84314300  1
  C  1260  1  0.00959700  0.42800000  0.82563100  1
  C  1261  1  0.02098800  0.42328200  0.80667800  1
  C  1262  1  0.04645600  0.42186700  0.80533300  1
  C  1265  1  0.98388300  0.42722700  0.82733900  1
  C  1266  1  0.96934600  0.44575500  0.81850700  1
  C  1267  1  0.94373800  0.44422200  0.82003100  1
  C  1268  1  0.93215400  0.42465900  0.83008500  1
  C  1269  1  0.94704500  0.40642900  0.83876400  1
  C  1270  1  0.97265800  0.40742200  0.83753800  1
  C  1281  1  0.90687800  0.42351400  0.83089000  1
  C  1282  1  0.08596900  0.42203800  0.82161300  1
  C  1285  1  0.43701000  0.52408100  0.32291800  1
  C  1286  1  0.44846200  0.51872100  0.34177400  1
  C  1287  1  0.47390400  0.51721200  0.34310900  1
  C  1288  1  0.48847200  0.52094200  0.32560300  1
  C  1289  1  0.47708600  0.52567900  0.30665000  1
  C  1290  1  0.45161800  0.52710500  0.30530700  1
  C  1293  1  0.51418400  0.52171800  0.32732100  1
  C  1294  1  0.52872800  0.50319000  0.31850100  1
  C  1295  1  0.55433400  0.50472100  0.32004100  1
  C  1296  1  0.56590900  0.52428600  0.33010000  1
  C  1297  1  0.55101000  0.54252000  0.33876300  1
  C  1298  1  0.52539900  0.54152500  0.33752700  1
  C  1309  1  0.59118500  0.52542700  0.33092300  1
  C  1310  1  0.41210200  0.52689600  0.32157900  1
  N  17  1  0.16559500  0.33782500  0.87080500  1
  N  18  1  0.11010400  0.39140300  0.87324400  1
  N  23  1  0.17833700  0.40087600  0.81151600  1
  N  24  1  0.09746700  0.40998300  0.83539100  1
  N  25  1  0.18553600  0.32735600  0.90865900  1
  N  26  1  0.17500900  0.40833900  0.93098200  1
  N  43  1  0.33252300  0.61105600  0.37080100  1
  N  44  1  0.38798300  0.55748700  0.37323700  1
  N  49  1  0.31971000  0.54797900  0.31154300  1
  N  50  1  0.40059700  0.53891500  0.33537700  1
  N  51  1  0.31260800  0.62156700  0.40865700  1
  N  52  1  0.32307700  0.54059000  0.43101700  1
  N  69  1  0.88583900  0.89506100  0.12123300  1
  N  70  1  0.83437300  0.83959500  0.12613700  1
  N  75  1  0.82115000  0.90347000  0.06167200  1
  N  76  1  0.81606600  0.82386800  0.08887700  1
  N  77  1  0.89665800  0.91560900  0.15881200  1
  N  78  1  0.81539600  0.90710600  0.18108800  1
  N  95  1  0.61218600  0.05375400  0.62128000  1
  N  96  1  0.66365400  0.10927500  0.62615300  1
  N  101  1  0.67682900  0.04540000  0.56168000  1
  N  102  1  0.68193800  0.12500200  0.58888400  1
  N  103  1  0.60142600  0.03317800  0.65886000  1
  N  104  1  0.68270300  0.04176300  0.68107900  1
  N  121  1  0.33221800  0.33610900  0.62331600  1
  N  122  1  0.38601100  0.39128200  0.62099400  1
  N  127  1  0.31578300  0.40103400  0.68139500  1
  N  128  1  0.39672500  0.41125200  0.65877600  1
  N  129  1  0.31368100  0.32379200  0.58536400  1
  N  130  1  0.32283000  0.40483400  0.56198200  1
  N  147  1  0.16583200  0.61275100  0.12332200  1
  N  148  1  0.11208600  0.55757100  0.12098600  1
  N  153  1  0.18230700  0.54785400  0.18139600  1
  N  154  1  0.10137000  0.53762100  0.15877700  1
  N  155  1  0.18436500  0.62509800  0.08537400  1
  N  156  1  0.17531300  0.54405500  0.06197400  1
  N  173  1  0.61061500  0.89529500  0.37253800  1
  N  174  1  0.66318000  0.84136800  0.36830100  1
  N  179  1  0.67744300  0.90817800  0.43079800  1
  N  180  1  0.68259600  0.82779700  0.40576300  1
  N  181  1  0.59800100  0.91435800  0.33481300  1
  N  182  1  0.67940600  0.90772100  0.31167600  1
  N  199  1  0.88750800  0.05352700  0.87253500  1
  N  200  1  0.83497400  0.10751900  0.86830900  1
  N  205  1  0.82069600  0.04074400  0.93082800  1
  N  206  1  0.81557400  0.12111700  0.90577300  1
  N  207  1  0.90006900  0.03444900  0.83480400  1
  N  208  1  0.81866900  0.04118900  0.81170000  1
  N  225  1  0.82851300  0.61114400  0.12717200  1
  N  226  1  0.88407000  0.55982500  0.12201800  1
  N  231  1  0.82013000  0.54638100  0.18640200  1
  N  232  1  0.89981500  0.54167300  0.15931800  1
  N  233  1  0.80781900  0.62222300  0.08971100  1
  N  234  1  0.81665500  0.54122700  0.06682300  1
  N  251  1  0.66946800  0.33779600  0.62714000  1
  N  252  1  0.61398200  0.38914800  0.62200600  1
  N  257  1  0.67798800  0.40251500  0.68635500  1
  N  258  1  0.59827900  0.40725600  0.65933400  1
  N  259  1  0.69012200  0.32666000  0.58967300  1
  N  260  1  0.68137300  0.40764800  0.56674500  1
  N  277  1  0.11628800  0.05610800  0.88008200  1
  N  278  1  0.16802900  0.10909900  0.87254300  1
  N  283  1  0.18372500  0.04576800  0.93695300  1
  N  284  1  0.18700000  0.12531100  0.90940200  1
  N  285  1  0.10232000  0.03574400  0.84307700  1
  N  286  1  0.18246700  0.04000700  0.81746800  1
  N  303  1  0.38180600  0.89279900  0.38005400  1
  N  304  1  0.33003000  0.83980700  0.37257000  1
  N  309  1  0.31447200  0.90317600  0.43697800  1
  N  310  1  0.31112200  0.82361800  0.40945900  1
  N  311  1  0.39573200  0.91317200  0.34304600  1
  N  312  1  0.31555900  0.90890900  0.31748900  1
  N  329  1  0.66971100  0.61297000  0.37533200  1
  N  330  1  0.61578100  0.56045400  0.37955900  1
  N  335  1  0.68282300  0.54619400  0.31724400  1
  N  336  1  0.60232200  0.54116000  0.34204200  1
  N  337  1  0.68865100  0.62575700  0.41303700  1
  N  338  1  0.68170600  0.54449400  0.43651600  1
  N  355  1  0.82841500  0.33600300  0.87532500  1
  N  356  1  0.88229300  0.38852800  0.87955700  1
  N  361  1  0.81522400  0.40276100  0.81725800  1
  N  362  1  0.89573600  0.40781300  0.84203300  1
  N  363  1  0.80951300  0.32316900  0.91303300  1
  N  364  1  0.81638800  0.40442100  0.93655300  1
  N  381  1  0.38306100  0.05566200  0.62214700  1
  N  382  1  0.33031900  0.10770800  0.62962900  1
  N  387  1  0.31420300  0.04140800  0.56712000  1
  N  388  1  0.31025000  0.12170300  0.59253900  1
  N  389  1  0.39917300  0.03642100  0.65894500  1
  N  390  1  0.31973900  0.04022600  0.68661800  1
  N  407  1  0.11498800  0.89329700  0.12213800  1
  N  408  1  0.16771100  0.84121700  0.12958300  1
  N  413  1  0.18379200  0.90748200  0.06704200  1
  N  414  1  0.18774100  0.82720100  0.09248000  1
  N  415  1  0.09892900  0.91250100  0.15896200  1
  N  416  1  0.17838400  0.90863700  0.18657200  1
  N  435  1  0.23962600  0.36224300  0.75911300  1
  N  436  1  0.24243400  0.45131000  0.75535800  1
  N  463  1  0.25847600  0.58666400  0.25911400  1
  N  464  1  0.25558800  0.49759700  0.25539100  1
  N  491  1  0.85876900  0.96415300  0.00880600  1
  N  492  1  0.76976100  0.96709900  0.00426700  1
  N  519  1  0.63930700  0.98477400  0.50872000  1
  N  520  1  0.72832400  0.98181500  0.50429800  1
  N  547  1  0.75959700  0.58426800  0.23931500  1
  N  548  1  0.75636400  0.49526600  0.24382100  1
  N  575  1  0.73842300  0.36463500  0.73936400  1
  N  576  1  0.74173200  0.45364200  0.74378200  1
  N  603  1  0.14481100  0.98446200  0.98874700  1
  N  604  1  0.23374700  0.98129300  0.99436400  1
  N  631  1  0.35324900  0.96439100  0.48891300  1
  N  632  1  0.26429900  0.96761500  0.49435300  1
  N  659  1  0.74043100  0.86838700  0.25950300  1
  N  660  1  0.74286300  0.95745200  0.25530300  1
  N  687  1  0.75773000  0.08054500  0.75944200  1
  N  688  1  0.75518100  0.99147500  0.75534700  1
  N  715  1  0.36130800  0.46565000  0.50911000  1
  N  716  1  0.27220100  0.46790900  0.50562800  1
  N  743  1  0.13679800  0.48332000  0.00905100  1
  N  744  1  0.22590500  0.48096400  0.00561100  1
  N  771  1  0.25877900  0.07898300  0.73881600  1
  N  772  1  0.25575000  0.99002400  0.74422700  1
  N  799  1  0.23922100  0.86995200  0.23891300  1
  N  800  1  0.24232700  0.95892100  0.24416400  1
  N  827  1  0.64246200  0.48314600  0.48847900  1
  N  828  1  0.73151300  0.48042900  0.49269700  1
  N  855  1  0.85557800  0.46566700  0.98862200  1
  N  856  1  0.76652200  0.46847500  0.99274400  1
  N  883  1  0.16581200  0.21602000  0.90221600  1
  N  884  1  0.24343700  0.21313200  0.93905200  1
  N  911  1  0.33230200  0.73291400  0.40222100  1
  N  912  1  0.25471400  0.73579200  0.43912200  1
  N  939  1  0.00784100  0.89189600  0.15330100  1
  N  940  1  0.01197300  0.97104200  0.18753300  1
  N  967  1  0.49026700  0.05711000  0.65348300  1
  N  968  1  0.48612200  0.97775600  0.68735900  1
  N  995  1  0.33299600  0.21229100  0.59569500  1
  N  996  1  0.25517200  0.20854700  0.55926000  1
  N  1023  1  0.16506600  0.73660500  0.09574600  1
  N  1024  1  0.24279800  0.74036000  0.05916700  1
  N  1051  1  0.48647600  0.89038300  0.34381400  1
  N  1052  1  0.48191700  0.97037700  0.31109800  1
  N  1079  1  0.01160700  0.05869600  0.84357400  1
  N  1080  1  0.01610900  0.97842600  0.81133300  1
  N  1107  1  0.83276200  0.73213100  0.09597200  1
  N  1108  1  0.75526300  0.73893500  0.05933000  1
  N  1135  1  0.66528500  0.21673500  0.59604100  1
  N  1136  1  0.74267600  0.20993100  0.55922900  1
  N  1163  1  0.66409500  0.73614700  0.40257300  1
  N  1164  1  0.74162800  0.74351300  0.43901900  1
  N  1191  1  0.83398900  0.21277000  0.90246000  1
  N  1192  1  0.75659300  0.20539300  0.93911800  1
  N  1219  1  0.50685300  0.38934100  0.65197100  1
  N  1220  1  0.51249300  0.46634400  0.68954500  1
  N  1247  1  0.99124600  0.55953400  0.15192700  1
  N  1248  1  0.98559000  0.48256600  0.18954500  1
  N  1275  1  0.98712500  0.38860400  0.84596600  1
  N  1276  1  0.98065400  0.46563700  0.80855700  1
  N  1303  1  0.51092300  0.56034100  0.34594800  1
  N  1304  1  0.51742700  0.48330500  0.30854400  1
  O  437  1  0.25607800  0.46405500  0.76641400  1
  O  438  1  0.25256200  0.35038800  0.77141000  1
  O  439  1  0.22118200  0.34985600  0.75471200  1
  O  440  1  0.22454100  0.46393800  0.74994800  1
  O  465  1  0.24192400  0.48486900  0.26644300  1
  O  466  1  0.24554600  0.59853900  0.27140200  1
  O  467  1  0.27693500  0.59903100  0.25471700  1
  O  468  1  0.27347800  0.48495000  0.24999600  1
  O  493  1  0.75694700  0.98059700  0.01539500  1
  O  494  1  0.87041700  0.97689600  0.02138300  1
  O  495  1  0.87125000  0.94580300  0.00430900  1
  O  496  1  0.75712300  0.94934800  0.99854300  1
  O  521  1  0.74111600  0.96830400  0.51543300  1
  O  522  1  0.62763200  0.97202400  0.52127400  1
  O  523  1  0.62684000  0.00313000  0.50421700  1
  O  524  1  0.74097300  0.99957000  0.49860300  1
  O  549  1  0.74281100  0.48250300  0.23269900  1
  O  550  1  0.74687700  0.59596100  0.22675200  1
  O  551  1  0.77799000  0.59669100  0.24380100  1
  O  552  1  0.77408000  0.48256900  0.24952500  1
  O  577  1  0.75531000  0.46637900  0.73266100  1
  O  578  1  0.75114700  0.35291100  0.72682500  1
  O  579  1  0.72001100  0.35223700  0.74384700  1
  O  580  1  0.72401800  0.46635900  0.74945300  1
  O  605  1  0.24672300  0.96791400  0.98326600  1
  O  606  1  0.13337900  0.97191500  0.97589300  1
  O  607  1  0.13226600  0.00276500  0.99326100  1
  O  608  1  0.24631800  0.99893800  0.00041300  1
  O  633  1  0.25136100  0.98101200  0.48324000  1
  O  634  1  0.36472600  0.97694300  0.47609000  1
  O  635  1  0.36576700  0.94607800  0.49344100  1
  O  636  1  0.25170100  0.94997000  0.50036400  1
  O  661  1  0.75665400  0.97031100  0.26613100  1
  O  662  1  0.75360800  0.85663600  0.27168800  1
  O  663  1  0.72194200  0.85592500  0.25538400  1
  O  664  1  0.72484000  0.96998800  0.25004400  1
  O  689  1  0.74136300  0.97865100  0.76618200  1
  O  690  1  0.74456200  0.09233300  0.77160900  1
  O  691  1  0.77623600  0.09297500  0.75531500  1
  O  692  1  0.77319300  0.97890800  0.75011600  1
  O  717  1  0.25940600  0.48169000  0.51652000  1
  O  718  1  0.37318800  0.47887400  0.52117000  1
  O  719  1  0.37373700  0.44716200  0.50492400  1
  O  720  1  0.25967500  0.44982100  0.50051000  1
  O  745  1  0.23867800  0.46715900  0.01650000  1
  O  746  1  0.12489500  0.47010500  0.02110000  1
  O  747  1  0.12439300  0.50182600  0.00486700  1
  O  748  1  0.23845500  0.49904300  0.00051300  1
  O  773  1  0.24228000  0.97707200  0.73318900  1
  O  774  1  0.24610000  0.09045400  0.72607900  1
  O  775  1  0.27711400  0.09152500  0.74323800  1
  O  776  1  0.27346900  0.97745500  0.75012400  1
  O  801  1  0.25582800  0.97183500  0.23312300  1
  O  802  1  0.25191200  0.85843500  0.22621100  1
  O  803  1  0.22086400  0.85744000  0.24333400  1
  O  804  1  0.22460800  0.97151900  0.25001500  1
  O  829  1  0.74433800  0.46673700  0.48174800  1
  O  830  1  0.63069600  0.47014700  0.47616800  1
  O  831  1  0.63003500  0.50160800  0.49275400  1
  O  832  1  0.74409800  0.49835200  0.49811400  1
  O  857  1  0.75372800  0.48218900  0.98179000  1
  O  858  1  0.86737400  0.47866000  0.97632700  1
  O  859  1  0.86798100  0.44719200  0.99290300  1
  O  860  1  0.75391000  0.45055900  0.99813600  1
  O  885  1  0.26320900  0.20809700  0.93043200  1
  O  886  1  0.16375900  0.21189500  0.88338300  1
  O  887  1  0.14587700  0.21156100  0.91079200  1
  O  888  1  0.24511200  0.20794700  0.95772200  1
  O  913  1  0.23493900  0.74085200  0.43052100  1
  O  914  1  0.33433800  0.73706600  0.38339100  1
  O  915  1  0.35224600  0.73735200  0.41078700  1
  O  916  1  0.25306100  0.74095600  0.45779800  1
  O  941  1  0.01703500  0.99038600  0.17826200  1
  O  942  1  0.01171100  0.88900200  0.13451000  1
  O  943  1  0.01216300  0.87227800  0.16242600  1
  O  944  1  0.01742300  0.97348400  0.20608800  1
  O  969  1  0.48110400  0.95846200  0.67799900  1
  O  970  1  0.48643500  0.06010100  0.63469800  1
  O  971  1  0.48591500  0.07667700  0.66267700  1
  O  972  1  0.48062800  0.97520300  0.70589400  1
  O  997  1  0.23533800  0.20446000  0.56812800  1
  O  998  1  0.33507200  0.20932900  0.61468000  1
  O  999  1  0.35280000  0.20692900  0.58727400  1
  O  1000  1  0.25332500  0.20221700  0.54085300  1
  O  1025  1  0.26265100  0.74446200  0.06800000  1
  O  1026  1  0.16303500  0.73958400  0.11473300  1
  O  1027  1  0.14523800  0.74195000  0.08735600  1
  O  1028  1  0.24459800  0.74667700  0.04075500  1
  O  1053  1  0.47808000  0.98965700  0.32086600  1
  O  1054  1  0.48391400  0.88723800  0.36273500  1
  O  1055  1  0.48099800  0.87104900  0.33469900  1
  O  1056  1  0.47516600  0.97333400  0.29290300  1
  O  1081  1  0.01990200  0.95922100  0.82121400  1
  O  1082  1  0.01415100  0.06197400  0.86248000  1
  O  1083  1  0.01711800  0.07795900  0.83436600  1
  O  1084  1  0.02288900  0.97531600  0.79316300  1
  O  1109  1  0.73581100  0.74498300  0.06800000  1
  O  1110  1  0.83507600  0.73617600  0.11479500  1
  O  1111  1  0.85287700  0.73553800  0.08735400  1
  O  1112  1  0.75377900  0.74417100  0.04065800  1
  O  1137  1  0.76215200  0.20387400  0.56785700  1
  O  1138  1  0.66302400  0.21268300  0.61486700  1
  O  1139  1  0.64514400  0.21332900  0.58746200  1
  O  1140  1  0.74410200  0.20470000  0.54055300  1
  O  1165  1  0.76125000  0.74847100  0.43013300  1
  O  1166  1  0.66193400  0.73898200  0.38358400  1
  O  1167  1  0.64403800  0.74059400  0.41095200  1
  O  1168  1  0.74319900  0.74995200  0.45741700  1
  O  1193  1  0.73694100  0.20042000  0.93028300  1
  O  1194  1  0.83608400  0.20992600  0.88346500  1
  O  1195  1  0.85407600  0.20833700  0.91079000  1
  O  1196  1  0.75508900  0.19896200  0.95752000  1
  O  1221  1  0.51832800  0.48601400  0.68112200  1
  O  1222  1  0.51098300  0.38737700  0.63313300  1
  O  1223  1  0.51053100  0.36914500  0.66037800  1
  O  1224  1  0.51765300  0.46758100  0.70824600  1
  O  1249  1  0.97976700  0.46288900  0.18112900  1
  O  1250  1  0.98713000  0.56147900  0.13308400  1
  O  1251  1  0.98755900  0.57973700  0.16031600  1
  O  1252  1  0.98041400  0.48134200  0.20824400  1
  O  1277  1  0.97561000  0.48541300  0.81716700  1
  O  1278  1  0.98400100  0.38671700  0.86494800  1
  O  1279  1  0.98267700  0.36846300  0.83773200  1
  O  1280  1  0.97450200  0.46693600  0.79007400  1
  O  1305  1  0.52246200  0.46353300  0.31716000  1
  O  1306  1  0.51403300  0.56222700  0.36493200  1
  O  1307  1  0.51537500  0.58048200  0.33771800  1
  O  1308  1  0.52359600  0.48200500  0.29006600  1
