# generated using pymatgen
data_H8C8N
_symmetry_space_group_name_H-M   'P 1'
_cell_length_a   9.89306667
_cell_length_b   84.13110000
_cell_length_c   84.13110000
_cell_angle_alpha   120.00000000
_cell_angle_beta   90.00000000
_cell_angle_gamma   90.00000000
_symmetry_Int_Tables_number   1
_chemical_formula_structural   H8C8N
_chemical_formula_sum   'H576 C576 N72'
_cell_volume   60642.16558452
_cell_formula_units_Z   72
loop_
 _symmetry_equiv_pos_site_id
 _symmetry_equiv_pos_as_xyz
  1  'x, y, z'
loop_
 _atom_site_type_symbol
 _atom_site_label
 _atom_site_symmetry_multiplicity
 _atom_site_fract_x
 _atom_site_fract_y
 _atom_site_fract_z
 _atom_site_occupancy
  C  1  1  0.00030300  0.79374800  0.31597100  1
  C  2  1  0.98900800  0.79799100  0.33436400  1
  C  3  1  0.98651500  0.81641000  0.34906400  1
  C  4  1  0.98799700  0.83068800  0.34474200  1
  C  5  1  0.99768500  0.82694600  0.32638800  1
  C  6  1  0.01072500  0.80839300  0.31237100  1
  C  13  1  0.00027300  0.50871500  0.19545300  1
  C  14  1  0.98903200  0.52286900  0.19121400  1
  C  15  1  0.98646100  0.51915600  0.17279900  1
  C  16  1  0.98803100  0.50055800  0.15851600  1
  C  17  1  0.99775100  0.48594400  0.16225200  1
  C  18  1  0.01073000  0.49047300  0.18080400  1
  C  25  1  0.00038400  0.67322400  0.48046900  1
  C  26  1  0.98910600  0.65483100  0.46631900  1
  C  27  1  0.98660200  0.64013200  0.47003900  1
  C  28  1  0.98805700  0.64445600  0.48864000  1
  C  29  1  0.99773600  0.66280900  0.50325000  1
  C  30  1  0.01079600  0.67682600  0.49871500  1
  C  37  1  0.00027300  0.19004500  0.67863600  1
  C  38  1  0.98901200  0.18580300  0.66024400  1
  C  39  1  0.98640100  0.16738400  0.64554400  1
  C  40  1  0.98794000  0.15310600  0.64986500  1
  C  41  1  0.99770100  0.15684600  0.66821700  1
  C  42  1  0.01071000  0.17539900  0.68223500  1
  C  49  1  0.00029900  0.47506800  0.79914700  1
  C  50  1  0.98900100  0.46091900  0.80339100  1
  C  51  1  0.98650800  0.46463700  0.82181000  1
  C  52  1  0.98799100  0.48323700  0.83608800  1
  C  53  1  0.99768100  0.49784900  0.83234700  1
  C  54  1  0.01072400  0.49331300  0.81379300  1
  C  61  1  0.00025300  0.31056200  0.51411900  1
  C  62  1  0.98899800  0.32895400  0.52827300  1
  C  63  1  0.98644000  0.34365600  0.52455700  1
  C  64  1  0.98801000  0.33934000  0.50596000  1
  C  65  1  0.99772600  0.32098900  0.49134500  1
  C  66  1  0.01070500  0.30696700  0.49587500  1
  C  73  1  0.98239600  0.47466800  0.67925700  1
  C  74  1  0.98684500  0.46045100  0.66083500  1
  C  75  1  0.98284000  0.46404900  0.64605400  1
  C  76  1  0.98072700  0.48264200  0.65032600  1
  C  77  1  0.98201700  0.49736700  0.66868900  1
  C  78  1  0.97975700  0.49295800  0.68287100  1
  C  85  1  0.98221400  0.30992100  0.79812400  1
  C  86  1  0.98674300  0.32834000  0.80231800  1
  C  87  1  0.98279100  0.34312800  0.82069500  1
  C  88  1  0.98060200  0.33886400  0.83502000  1
  C  89  1  0.98186500  0.32050400  0.83139100  1
  C  90  1  0.97968200  0.30631500  0.81280400  1
  C  97  1  0.98262700  0.19106300  0.51451500  1
  C  98  1  0.98716900  0.18685900  0.52873300  1
  C  99  1  0.98300200  0.16848100  0.52513600  1
  C  100  1  0.98077300  0.15416000  0.50654600  1
  C  101  1  0.98202200  0.15779600  0.49182000  1
  C  102  1  0.97983800  0.17638500  0.49622600  1
  C  109  1  0.98238000  0.50910200  0.31534200  1
  C  110  1  0.98701300  0.52332100  0.33376200  1
  C  111  1  0.98293100  0.51972600  0.34854500  1
  C  112  1  0.98066600  0.50113600  0.34427700  1
  C  113  1  0.98189500  0.48640900  0.32591400  1
  C  114  1  0.97972700  0.49081400  0.31173000  1
  C  121  1  0.98240000  0.67385400  0.19648500  1
  C  122  1  0.98684900  0.65543200  0.19228000  1
  C  123  1  0.98284500  0.64065000  0.17390100  1
  C  124  1  0.98073300  0.64492300  0.15958100  1
  C  125  1  0.98202700  0.66328600  0.16321900  1
  C  126  1  0.97976300  0.67746700  0.18180900  1
  C  133  1  0.98233000  0.79272400  0.48008900  1
  C  134  1  0.98687900  0.79692200  0.46586800  1
  C  135  1  0.98286100  0.81530000  0.46946000  1
  C  136  1  0.98064700  0.82962300  0.48804900  1
  C  137  1  0.98192600  0.82599200  0.50277900  1
  C  138  1  0.97977800  0.80740400  0.49837700  1
  C  145  1  0.98539900  0.89586200  0.25587200  1
  C  146  1  0.98210400  0.91475700  0.26162200  1
  C  147  1  0.98535200  0.92137300  0.24903800  1
  C  148  1  0.98878900  0.90801900  0.22999800  1
  C  149  1  0.98822600  0.88880500  0.22343700  1
  C  150  1  0.98875600  0.88322700  0.23679100  1
  C  157  1  0.98530900  0.34650500  0.09332500  1
  C  158  1  0.98193100  0.33333333  0.07440433  1
  C  159  1  0.98521100  0.31416100  0.06781800  1
  C  160  1  0.98863100  0.30847700  0.08117300  1
  C  161  1  0.98806900  0.32113000  0.10038500  1
  C  162  1  0.98856700  0.34006300  0.10596200  1
  C  169  1  0.98528500  0.73331000  0.64268400  1
  C  170  1  0.98212300  0.72755700  0.65582700  1
  C  171  1  0.98533100  0.74014200  0.67502800  1
  C  172  1  0.98870800  0.75918200  0.68071300  1
  C  173  1  0.98800700  0.76574400  0.66806200  1
  C  174  1  0.98850200  0.75238900  0.64912800  1
  C  181  1  0.98532800  0.08791500  0.73870600  1
  C  182  1  0.98199700  0.06901800  0.73295000  1
  C  183  1  0.98525100  0.06239900  0.74553300  1
  C  184  1  0.98866400  0.07574800  0.76457300  1
  C  185  1  0.98804800  0.09496200  0.77113700  1
  C  186  1  0.98855300  0.10054700  0.75778800  1
  C  193  1  0.98541200  0.63728000  0.90126300  1
  C  194  1  0.98212700  0.65042500  0.92015900  1
  C  195  1  0.98537300  0.66962500  0.92677400  1
  C  196  1  0.98881600  0.67531200  0.91342000  1
  C  197  1  0.98825000  0.66265900  0.89420700  1
  C  198  1  0.98876900  0.64372600  0.88862800  1
  C  205  1  0.98530100  0.25047400  0.35190800  1
  C  206  1  0.98193500  0.25622100  0.33876000  1
  C  207  1  0.98521400  0.24363400  0.31956100  1
  C  208  1  0.98863100  0.22459400  0.31387700  1
  C  209  1  0.98806500  0.21803800  0.32653400  1
  C  210  1  0.98855600  0.23139300  0.34546500  1
  C  217  1  0.98554100  0.63685800  0.73861000  1
  C  218  1  0.98634200  0.65024900  0.73318700  1
  C  219  1  0.98457700  0.66936400  0.74607400  1
  C  220  1  0.98531200  0.67471800  0.76503700  1
  C  221  1  0.98618100  0.66181000  0.77128700  1
  C  222  1  0.98749200  0.64296400  0.75762600  1
  C  229  1  0.98403800  0.25057700  0.90094300  1
  C  230  1  0.98598500  0.25599800  0.91975700  1
  C  231  1  0.98430700  0.24311100  0.92598500  1
  C  232  1  0.98443900  0.22414700  0.91237800  1
  C  233  1  0.98463500  0.21789600  0.89321900  1
  C  234  1  0.98495500  0.23155900  0.88803600  1
  C  241  1  0.98475200  0.08824600  0.35232800  1
  C  242  1  0.98613100  0.06943300  0.33893700  1
  C  243  1  0.98431100  0.06320100  0.31982200  1
  C  244  1  0.98474200  0.07680900  0.31446600  1
  C  245  1  0.98526200  0.09597000  0.32737200  1
  C  246  1  0.98605000  0.10115500  0.34621800  1
  C  253  1  0.98458400  0.34691400  0.25596800  1
  C  254  1  0.98609000  0.33352100  0.26138900  1
  C  255  1  0.98442200  0.31440700  0.24850100  1
  C  256  1  0.98476600  0.30905300  0.22953700  1
  C  257  1  0.98526200  0.32196200  0.22328800  1
  C  258  1  0.98600000  0.34080700  0.23695100  1
  C  265  1  0.98551400  0.73320500  0.09364700  1
  C  266  1  0.98630600  0.72778000  0.07483300  1
  C  267  1  0.98452000  0.74066500  0.06860200  1
  C  268  1  0.98524800  0.75962900  0.08220900  1
  C  269  1  0.98613100  0.76588100  0.10136800  1
  C  270  1  0.98745500  0.75222200  0.10655500  1
  C  277  1  0.98432500  0.89554200  0.64225700  1
  C  278  1  0.98602000  0.91435600  0.65564700  1
  C  279  1  0.98435200  0.92058600  0.67476200  1
  C  280  1  0.98459400  0.90698100  0.68012000  1
  C  281  1  0.98497500  0.88782100  0.66721600  1
  C  282  1  0.98551000  0.88263500  0.64836800  1
  C  289  1  0.98692900  0.87271700  0.28302900  1
  C  290  1  0.10595400  0.87001200  0.29099800  1
  C  291  1  0.09715400  0.86029800  0.30090100  1
  C  292  1  0.96785900  0.85476200  0.30400800  1
  C  293  1  0.84763000  0.86005200  0.29843000  1
  C  294  1  0.85705100  0.86837900  0.28723600  1
  C  295  1  0.22095200  0.85509200  0.30765600  1
  C  299  1  0.24035600  0.87675300  0.28846800  1
  C  303  1  0.71078000  0.85613800  0.30352700  1
  C  307  1  0.72968300  0.87167000  0.27952200  1
  C  311  1  0.00086400  0.87542700  0.26803900  1
  C  313  1  0.95836400  0.84041500  0.30786300  1
  C  315  1  0.98690900  0.39680600  0.11647300  1
  C  316  1  0.10594200  0.40748500  0.11918200  1
  C  317  1  0.09716300  0.42710300  0.12890500  1
  C  318  1  0.96786600  0.43574700  0.13443000  1
  C  319  1  0.84764500  0.42488100  0.12913200  1
  C  320  1  0.85707500  0.40535900  0.12080800  1
  C  321  1  0.22097200  0.43906500  0.13412700  1
  C  325  1  0.24035000  0.39821800  0.11242500  1
  C  329  1  0.71079500  0.43388900  0.13302900  1
  C  333  1  0.72972300  0.39435600  0.11752700  1
  C  337  1  0.00104600  0.37910500  0.11375000  1
  C  339  1  0.95832700  0.45395000  0.14877500  1
  C  341  1  0.98681800  0.70615700  0.59238200  1
  C  342  1  0.10588800  0.69821400  0.58170100  1
  C  343  1  0.09712800  0.68832600  0.56208200  1
  C  344  1  0.96776000  0.68520000  0.55345000  1
  C  345  1  0.84754300  0.69073900  0.56431000  1
  C  346  1  0.85697400  0.70192300  0.58383000  1
  C  347  1  0.22096300  0.68159800  0.55012200  1
  C  351  1  0.24031000  0.70074000  0.59096900  1
  C  355  1  0.71072600  0.68563400  0.55529200  1
  C  359  1  0.72959600  0.70960900  0.59483800  1
  C  363  1  0.00087000  0.72114100  0.61008200  1
  C  365  1  0.95840900  0.68134100  0.53524500  1
  C  367  1  0.98696000  0.11107300  0.71156100  1
  C  368  1  0.10601300  0.11377700  0.70359400  1
  C  369  1  0.09726500  0.12348900  0.69368900  1
  C  370  1  0.96793600  0.12900900  0.69058000  1
  C  371  1  0.84764500  0.12374500  0.69616400  1
  C  372  1  0.85707500  0.11542000  0.70736200  1
  C  373  1  0.22105900  0.12869300  0.68693000  1
  C  377  1  0.24040200  0.10703300  0.70612600  1
  C  381  1  0.71081700  0.12767400  0.69107600  1
  C  385  1  0.72970300  0.11213300  0.71507700  1
  C  389  1  0.00088500  0.10835500  0.72654600  1
  C  391  1  0.95849900  0.14337400  0.68674400  1
  C  393  1  0.98693500  0.58697800  0.87811800  1
  C  394  1  0.10595700  0.57630500  0.87541300  1
  C  395  1  0.09715400  0.55668800  0.86570000  1
  C  396  1  0.96785900  0.54804400  0.86016300  1
  C  397  1  0.84763000  0.55891300  0.86545400  1
  C  398  1  0.85705500  0.57843300  0.87378000  1
  C  399  1  0.22095200  0.54472600  0.86049300  1
  C  403  1  0.24036100  0.58557600  0.88215400  1
  C  407  1  0.71078000  0.54990200  0.86153900  1
  C  411  1  0.72968400  0.58943900  0.87707100  1
  C  415  1  0.00087000  0.60467800  0.88082800  1
  C  417  1  0.95835900  0.52984300  0.84581600  1
  C  419  1  0.98689900  0.27762900  0.40220700  1
  C  420  1  0.10593200  0.28559900  0.41288800  1
  C  421  1  0.09714900  0.29549300  0.43250400  1
  C  422  1  0.96785500  0.29861200  0.44114900  1
  C  423  1  0.84763400  0.29304400  0.43028100  1
  C  424  1  0.85706600  0.28184600  0.41076100  1
  C  425  1  0.22095800  0.30223400  0.44446600  1
  C  429  1  0.24034000  0.28308800  0.40362100  1
  C  433  1  0.71078600  0.29815500  0.43929100  1
  C  437  1  0.72971300  0.27412500  0.39975700  1
  C  441  1  0.00103600  0.26265000  0.38450700  1
  C  443  1  0.95831300  0.30247200  0.45935300  1
  C  445  1  0.98347200  0.58658300  0.71115300  1
  C  446  1  0.86578300  0.57561700  0.70305700  1
  C  447  1  0.87683100  0.55601700  0.69330100  1
  C  448  1  0.00719700  0.54767700  0.69035000  1
  C  449  1  0.12603800  0.55881100  0.69594200  1
  C  450  1  0.11431200  0.57830600  0.70713500  1
  C  451  1  0.75445700  0.54378100  0.68652500  1
  C  455  1  0.73035100  0.58457400  0.70531000  1
  C  459  1  0.26382100  0.55007300  0.69092300  1
  C  463  1  0.24049100  0.58952500  0.71507700  1
  C  467  1  0.96689000  0.60430100  0.72604200  1
  C  469  1  0.01905300  0.52960100  0.68682900  1
  C  471  1  0.98268300  0.27806800  0.87815200  1
  C  472  1  0.86507600  0.28618900  0.87530500  1
  C  473  1  0.87624600  0.29596000  0.86547900  1
  C  474  1  0.00663500  0.29888800  0.86008600  1
  C  475  1  0.12548100  0.29324100  0.86557700  1
  C  476  1  0.11361500  0.28204600  0.87387500  1
  C  477  1  0.75399200  0.30277300  0.86003700  1
  C  481  1  0.72960800  0.28392700  0.88199200  1
  C  485  1  0.26334000  0.29822900  0.86184400  1
  C  489  1  0.23969400  0.27407300  0.87713800  1
  C  493  1  0.96611200  0.26315800  0.88094500  1
  C  495  1  0.01868900  0.30237700  0.84550900  1
  C  497  1  0.98299200  0.11105600  0.40260800  1
  C  498  1  0.86538900  0.11390000  0.41357500  1
  C  499  1  0.87656300  0.12372700  0.43317100  1
  C  500  1  0.00689300  0.12913700  0.44151400  1
  C  501  1  0.12569400  0.12361900  0.43036200  1
  C  502  1  0.11389800  0.11532500  0.41086700  1
  C  503  1  0.75427100  0.12917000  0.44541900  1
  C  507  1  0.72993500  0.10720700  0.40462200  1
  C  511  1  0.26355300  0.12733200  0.43908200  1
  C  515  1  0.24001700  0.11207300  0.39963900  1
  C  519  1  0.96645600  0.10824600  0.38489700  1
  C  521  1  0.01898700  0.14369000  0.45958500  1
  C  523  1  0.98297700  0.39719000  0.28344400  1
  C  524  1  0.86536400  0.40816300  0.29156500  1
  C  525  1  0.87651700  0.42776000  0.30132500  1
  C  526  1  0.00684900  0.43610400  0.30426700  1
  C  527  1  0.12564800  0.42495200  0.29864200  1
  C  528  1  0.11383700  0.40545800  0.28744200  1
  C  529  1  0.75421600  0.44000700  0.30811500  1
  C  533  1  0.72990100  0.39921700  0.28932400  1
  C  537  1  0.26350300  0.43367100  0.30366000  1
  C  541  1  0.23993700  0.39423000  0.27946600  1
  C  545  1  0.96625300  0.37948100  0.26855000  1
  C  547  1  0.01897700  0.45417600  0.30778900  1
  C  549  1  0.98347700  0.70575200  0.11646900  1
  C  550  1  0.86578500  0.69765600  0.11933900  1
  C  551  1  0.87683700  0.68790000  0.12918400  1
  C  552  1  0.00721100  0.68494700  0.13457000  1
  C  553  1  0.12604700  0.69053900  0.12902800  1
  C  554  1  0.11431700  0.70173300  0.12072600  1
  C  555  1  0.75446700  0.68112300  0.13464300  1
  C  559  1  0.73035100  0.69991000  0.11263800  1
  C  563  1  0.26383100  0.68551900  0.13274600  1
  C  567  1  0.24049200  0.70967400  0.11744800  1
  C  571  1  0.96689100  0.72064000  0.11363900  1
  C  573  1  0.01907300  0.68142400  0.14912400  1
  C  575  1  0.98280500  0.87274100  0.59197500  1
  C  576  1  0.86518200  0.86989700  0.58101000  1
  C  577  1  0.87633600  0.86007300  0.56141300  1
  C  578  1  0.00671200  0.85468100  0.55308900  1
  C  579  1  0.12556800  0.86017000  0.56422500  1
  C  580  1  0.11372700  0.86846500  0.58371900  1
  C  581  1  0.75406500  0.85463500  0.54916200  1
  C  585  1  0.72972800  0.87658500  0.58996200  1
  C  589  1  0.26341700  0.85643800  0.55550100  1
  C  593  1  0.23982600  0.87172100  0.59494900  1
  C  597  1  0.96625400  0.87554400  0.60968400  1
  C  599  1  0.01875100  0.84010600  0.53502200  1
  C  601  1  0.97025600  0.71632700  0.24026800  1
  C  602  1  0.85619000  0.72180100  0.25223300  1
  C  603  1  0.85852600  0.73914700  0.26881300  1
  C  604  1  0.97654800  0.75034800  0.27332000  1
  C  605  1  0.09645200  0.74378000  0.26252600  1
  C  606  1  0.09291000  0.72664100  0.24571300  1
  C  607  1  0.73850800  0.74644700  0.28147000  1
  C  611  1  0.73277500  0.70984600  0.24719900  1
  C  615  1  0.22441500  0.75496100  0.26805700  1
  C  619  1  0.21692100  0.72021700  0.23374800  1
  C  623  1  0.95019100  0.70389600  0.22179000  1
  C  625  1  0.96502000  0.76893900  0.28595500  1
  C  627  1  0.97030200  0.51039400  0.27286200  1
  C  628  1  0.85625200  0.51689500  0.26738800  1
  C  629  1  0.85857600  0.51613200  0.25004400  1
  C  630  1  0.97663300  0.50945400  0.23884900  1
  C  631  1  0.09654800  0.50523700  0.24542100  1
  C  632  1  0.09294900  0.50554500  0.26255100  1
  C  633  1  0.73854200  0.52148200  0.24274000  1
  C  637  1  0.73284200  0.52383000  0.27934500  1
  C  641  1  0.22457700  0.49961700  0.23425400  1
  C  645  1  0.21690500  0.49998700  0.26896600  1
  C  649  1  0.95005400  0.50437300  0.28531000  1
  C  651  1  0.96514200  0.50349600  0.22025700  1
  C  653  1  0.97024100  0.74895900  0.47880600  1
  C  654  1  0.85621100  0.73697900  0.47229600  1
  C  655  1  0.85856100  0.72039300  0.47305200  1
  C  656  1  0.97668000  0.71587600  0.47972100  1
  C  657  1  0.09653200  0.72667600  0.48395900  1
  C  658  1  0.09288800  0.74350200  0.48366200  1
  C  659  1  0.73857300  0.70772700  0.46767800  1
  C  663  1  0.73279800  0.74199900  0.46536100  1
  C  667  1  0.22451600  0.72113800  0.48959700  1
  C  671  1  0.21681000  0.75548100  0.48922800  1
  C  675  1  0.94997300  0.76742600  0.48482400  1
  C  677  1  0.96505000  0.70323800  0.48567300  1
  C  679  1  0.97017500  0.26744500  0.75434800  1
  C  680  1  0.85616000  0.26197600  0.74237200  1
  C  681  1  0.85855000  0.24463700  0.72578400  1
  C  682  1  0.97664300  0.23345300  0.72128100  1
  C  683  1  0.09648200  0.24000200  0.73209000  1
  C  684  1  0.09283800  0.25713000  0.74891400  1
  C  685  1  0.73859400  0.23733900  0.71311500  1
  C  689  1  0.73273200  0.27392800  0.74740100  1
  C  693  1  0.22445500  0.22882200  0.72656100  1
  C  697  1  0.21677400  0.26354600  0.76089200  1
  C  701  1  0.95005000  0.27987800  0.77282300  1
  C  703  1  0.96511100  0.21485700  0.70865400  1
  C  705  1  0.97025600  0.47335700  0.72173000  1
  C  706  1  0.85619100  0.46686500  0.72720200  1
  C  707  1  0.85852600  0.46762900  0.74454800  1
  C  708  1  0.97654800  0.47432200  0.75574900  1
  C  709  1  0.09645200  0.47854900  0.74918100  1
  C  710  1  0.09291000  0.47822600  0.73204400  1
  C  711  1  0.73850800  0.46227200  0.75184800  1
  C  715  1  0.73277000  0.45994600  0.71524900  1
  C  719  1  0.22441900  0.48419900  0.76036300  1
  C  723  1  0.21692100  0.48376800  0.72562100  1
  C  727  1  0.95019500  0.47940500  0.70929900  1
  C  729  1  0.96502000  0.48027800  0.77434000  1
  C  731  1  0.97040700  0.23483300  0.51580500  1
  C  732  1  0.85633300  0.24680500  0.52230400  1
  C  733  1  0.85862100  0.26338500  0.52153700  1
  C  734  1  0.97666400  0.26790500  0.51486000  1
  C  735  1  0.09659300  0.25711800  0.51064200  1
  C  736  1  0.09303500  0.24029800  0.51095400  1
  C  737  1  0.73856800  0.27603700  0.52688900  1
  C  741  1  0.73293800  0.24178000  0.52923900  1
  C  745  1  0.22460700  0.26266900  0.50502200  1
  C  749  1  0.21701000  0.22832800  0.50539800  1
  C  753  1  0.95019100  0.21636500  0.50978500  1
  C  755  1  0.96514700  0.28053800  0.50890200  1
  C  757  1  0.98843200  0.81731100  0.39304900  1
  C  758  1  0.10559400  0.82142800  0.40438000  1
  C  759  1  0.09875700  0.82036300  0.42081800  1
  C  760  1  0.97251900  0.81639900  0.42632500  1
  C  761  1  0.85203700  0.81479700  0.41628700  1
  C  762  1  0.86046700  0.81469300  0.39925900  1
  C  763  1  0.22168600  0.82266700  0.43231800  1
  C  767  1  0.23662500  0.82624600  0.39879300  1
  C  771  1  0.71690600  0.81239900  0.42304800  1
  C  775  1  0.73469100  0.81106100  0.38788700  1
  C  779  1  0.00675200  0.81131700  0.37444700  1
  C  781  1  0.97125600  0.80976900  0.43859700  1
  C  783  1  0.98846200  0.56224600  0.17190100  1
  C  784  1  0.10559400  0.56944700  0.16777100  1
  C  785  1  0.09870100  0.58694100  0.16881600  1
  C  786  1  0.97246000  0.59640500  0.17278000  1
  C  787  1  0.85197100  0.58798600  0.17441500  1
  C  788  1  0.86044200  0.57106900  0.17453300  1
  C  789  1  0.22157500  0.59613700  0.16650300  1
  C  793  1  0.23664100  0.55905100  0.16297500  1
  C  797  1  0.71680600  0.59713800  0.17680800  1
  C  801  1  0.73467700  0.56333500  0.17817700  1
  C  805  1  0.00661600  0.54964300  0.17790700  1
  C  807  1  0.97102400  0.61531100  0.17941700  1
  C  809  1  0.98851300  0.59614200  0.42695500  1
  C  810  1  0.10558800  0.58480200  0.41974800  1
  C  811  1  0.09861600  0.56835800  0.40225300  1
  C  812  1  0.97239800  0.56286000  0.39277700  1
  C  813  1  0.85196700  0.57292000  0.40122200  1
  C  814  1  0.86047200  0.58995600  0.41814100  1
  C  815  1  0.22147300  0.55684600  0.39304900  1
  C  819  1  0.23665100  0.59039100  0.43014200  1
  C  823  1  0.71675500  0.56616700  0.39208500  1
  C  827  1  0.73474600  0.60134300  0.42587600  1
  C  831  1  0.00673200  0.61474900  0.43955900  1
  C  833  1  0.97084800  0.55058000  0.37387600  1
  C  835  1  0.98831300  0.16649100  0.60156100  1
  C  836  1  0.10544300  0.16238100  0.59022700  1
  C  837  1  0.09849900  0.16344300  0.57378800  1
  C  838  1  0.97223700  0.16738700  0.56827100  1
  C  839  1  0.85178400  0.16897100  0.57831400  1
  C  840  1  0.86030500  0.16909500  0.59535300  1
  C  841  1  0.22140800  0.16117000  0.56229600  1
  C  845  1  0.23653000  0.15757400  0.59580900  1
  C  849  1  0.71653300  0.17131400  0.57154100  1
  C  853  1  0.73457100  0.17273400  0.60673400  1
  C  857  1  0.00669200  0.17248200  0.62016200  1
  C  859  1  0.97058000  0.17400100  0.55598600  1
  C  861  1  0.98843200  0.42155200  0.82270800  1
  C  862  1  0.10559900  0.41434000  0.82682900  1
  C  863  1  0.09877100  0.39683700  0.82576400  1
  C  864  1  0.97255000  0.38736200  0.82179300  1
  C  865  1  0.85206200  0.39579400  0.82018600  1
  C  866  1  0.86047800  0.41272000  0.82008700  1
  C  867  1  0.22170000  0.38764400  0.82807300  1
  C  871  1  0.23661100  0.42474800  0.83165100  1
  C  875  1  0.71694600  0.38663100  0.81778200  1
  C  879  1  0.73470200  0.42045700  0.81645100  1
  C  883  1  0.00675200  0.43416000  0.81671400  1
  C  885  1  0.97131700  0.36845900  0.81516100  1
  C  887  1  0.98845600  0.38764400  0.56764900  1
  C  888  1  0.10558900  0.39897500  0.57485000  1
  C  889  1  0.09869600  0.41542500  0.59234300  1
  C  890  1  0.97245600  0.42092400  0.60180700  1
  C  891  1  0.85196600  0.41087200  0.59339000  1
  C  892  1  0.86043300  0.39383500  0.57647100  1
  C  893  1  0.22157400  0.42693300  0.60154000  1
  C  897  1  0.23663600  0.39337500  0.56445300  1
  C  901  1  0.71680500  0.41762900  0.60254100  1
  C  905  1  0.73466700  0.38245900  0.56873800  1
  C  909  1  0.00660200  0.36903600  0.55504600  1
  C  911  1  0.97102300  0.43319400  0.62071300  1
  C  913  1  0.97917200  0.01210200  0.29332600  1
  C  914  1  0.86039000  0.00158000  0.28473700  1
  C  915  1  0.86458200  0.98188200  0.27550800  1
  C  916  1  0.98895700  0.97261400  0.27412900  1
  C  917  1  0.11028500  0.98311600  0.28101600  1
  C  918  1  0.10518500  0.00281600  0.29086300  1
  C  919  1  0.74005900  0.97028500  0.26757100  1
  C  923  1  0.72977400  0.01116800  0.28583600  1
  C  927  1  0.24382800  0.97359400  0.27858400  1
  C  931  1  0.23310200  0.01348300  0.29907200  1
  C  935  1  0.96526400  0.03041600  0.30769800  1
  C  937  1  0.98695000  0.95426400  0.27037000  1
  C  939  1  0.97925700  0.26771500  0.97708100  1
  C  940  1  0.86043100  0.26967100  0.98761100  1
  C  941  1  0.86460500  0.28014900  0.00731000  1
  C  942  1  0.98902900  0.28801100  0.01657800  1
  C  943  1  0.11037100  0.28437100  0.00607600  1
  C  944  1  0.10523700  0.27452200  0.98637700  1
  C  945  1  0.74005400  0.28384000  0.01890900  1
  C  949  1  0.72977900  0.26118300  0.97803200  1
  C  953  1  0.24396800  0.29142400  0.01559500  1
  C  957  1  0.23313900  0.27205700  0.97570700  1
  C  961  1  0.96514100  0.26376400  0.95876700  1
  C  963  1  0.98713900  0.30260100  0.03492800  1
  C  965  1  0.97927700  0.69586800  0.72148200  1
  C  966  1  0.86036700  0.70443300  0.71953100  1
  C  967  1  0.86440400  0.71365200  0.70905100  1
  C  968  1  0.98880200  0.71505400  0.70117900  1
  C  969  1  0.11020800  0.70820000  0.70480500  1
  C  970  1  0.10520000  0.69836200  0.71466600  1
  C  971  1  0.73978100  0.72157300  0.70539000  1
  C  975  1  0.72978900  0.70333400  0.72802900  1
  C  979  1  0.24366600  0.71064100  0.69770500  1
  C  983  1  0.23317900  0.69017600  0.71713700  1
  C  987  1  0.96528800  0.68149700  0.72542200  1
  C  989  1  0.98649100  0.71881000  0.68658700  1
  C  991  1  0.97920300  0.97168700  0.70125600  1
  C  992  1  0.86038100  0.98220500  0.70984100  1
  C  993  1  0.86451500  0.00190200  0.71906700  1
  C  994  1  0.98891800  0.01115800  0.72044200  1
  C  995  1  0.11031000  0.00067400  0.71356200  1
  C  996  1  0.10521500  0.98097500  0.70371900  1
  C  997  1  0.73998400  0.01349900  0.72700200  1
  C  1001  1  0.72978400  0.97261300  0.70874000  1
  C  1005  1  0.24382800  0.01020200  0.71599400  1
  C  1009  1  0.23315300  0.97031000  0.69552200  1
  C  1013  1  0.96532700  0.95337200  0.68688300  1
  C  1015  1  0.98687900  0.02950900  0.72419800  1
  C  1017  1  0.97922600  0.71606600  0.01750200  1
  C  1018  1  0.86042600  0.71413300  0.00698200  1
  C  1019  1  0.86460100  0.70366700  0.98728500  1
  C  1020  1  0.98896700  0.69577600  0.97801400  1
  C  1021  1  0.11030900  0.69938800  0.98851200  1
  C  1022  1  0.10523000  0.70924300  0.00821400  1
  C  1023  1  0.74006800  0.70000700  0.97568900  1
  C  1027  1  0.72983100  0.72262600  0.01657300  1
  C  1031  1  0.24384200  0.69229800  0.97898900  1
  C  1035  1  0.23316300  0.71170100  0.01887800  1
  C  1039  1  0.96534800  0.72000400  0.03581500  1
  C  1041  1  0.98693500  0.68118500  0.95966500  1
  C  1043  1  0.97926800  0.28791300  0.27310400  1
  C  1044  1  0.86043600  0.27934000  0.27506100  1
  C  1045  1  0.86459700  0.27012300  0.28554100  1
  C  1046  1  0.98901200  0.26871700  0.29340500  1
  C  1047  1  0.11036100  0.27557800  0.28976500  1
  C  1048  1  0.10524100  0.28542600  0.27991300  1
  C  1049  1  0.74003900  0.26221500  0.28923100  1
  C  1053  1  0.72979400  0.28043100  0.26657000  1
  C  1057  1  0.24394900  0.27311500  0.29682300  1
  C  1061  1  0.23314800  0.29362900  0.27744700  1
  C  1065  1  0.96516200  0.30227600  0.26915400  1
  C  1067  1  0.98710700  0.26496100  0.30799800  1
  C  1069  1  0.97959100  0.84688100  0.17716500  1
  C  1070  1  0.86105200  0.83977500  0.16605300  1
  C  1071  1  0.86461100  0.82224700  0.14950200  1
  C  1072  1  0.98857700  0.81222900  0.14350800  1
  C  1073  1  0.11012200  0.82036800  0.15345600  1
  C  1074  1  0.10533700  0.83748900  0.17044500  1
  C  1075  1  0.73986200  0.81342900  0.13827900  1
  C  1079  1  0.73116400  0.85039800  0.17207700  1
  C  1083  1  0.24306400  0.81061500  0.14658800  1
  C  1087  1  0.23305200  0.84495400  0.18140500  1
  C  1091  1  0.96340200  0.85917600  0.19611800  1
  C  1093  1  0.98392700  0.79306900  0.13162500  1
  C  1095  1  0.97957000  0.31678600  0.14231400  1
  C  1096  1  0.86127500  0.31278300  0.14946000  1
  C  1097  1  0.86533800  0.31375000  0.16698000  1
  C  1098  1  0.98958900  0.31773400  0.17692000  1
  C  1099  1  0.11095700  0.31953000  0.16873200  1
  C  1100  1  0.10565500  0.31944400  0.15163500  1
  C  1101  1  0.74086700  0.31140100  0.17587900  1
  C  1105  1  0.73113400  0.30822300  0.13889800  1
  C  1109  1  0.24425100  0.32232600  0.17839100  1
  C  1113  1  0.23315900  0.32295100  0.14413600  1
  C  1117  1  0.96329700  0.32344300  0.13001800  1
  C  1119  1  0.98606000  0.32503500  0.19609000  1
  C  1121  1  0.97964000  0.81201500  0.67240400  1
  C  1122  1  0.86144700  0.82317800  0.67639500  1
  C  1123  1  0.86573300  0.83972600  0.67541700  1
  C  1124  1  0.99005400  0.84568400  0.67144800  1
  C  1125  1  0.11128500  0.83568300  0.66969100  1
  C  1126  1  0.10582200  0.81866800  0.66976700  1
  C  1127  1  0.74132800  0.85097200  0.67773100  1
  C  1131  1  0.73119900  0.81719500  0.68094800  1
  C  1135  1  0.24473600  0.84254600  0.66693900  1
  C  1139  1  0.23324800  0.80764600  0.66625700  1
  C  1143  1  0.96323000  0.79306600  0.66575600  1
  C  1145  1  0.98691500  0.85755200  0.66414800  1
  C  1147  1  0.97975800  0.13688700  0.81740000  1
  C  1148  1  0.86155500  0.14410100  0.82856600  1
  C  1149  1  0.86591900  0.16163600  0.84510400  1
  C  1150  1  0.99037200  0.17152600  0.85107900  1
  C  1151  1  0.11157200  0.16324500  0.84109200  1
  C  1152  1  0.10595800  0.14616100  0.82407200  1
  C  1153  1  0.74152000  0.17060700  0.85633200  1
  C  1157  1  0.73121100  0.13358100  0.82260400  1
  C  1161  1  0.24515700  0.17281400  0.84797300  1
  C  1165  1  0.23332400  0.13863300  0.81304300  1
  C  1169  1  0.96302900  0.12457900  0.79846100  1
  C  1171  1  0.98761300  0.19069500  0.86294700  1
  C  1173  1  0.97961000  0.66700700  0.85228400  1
  C  1174  1  0.86106800  0.67101700  0.84518100  1
  C  1175  1  0.86461600  0.67004000  0.82765300  1
  C  1176  1  0.98857300  0.66601400  0.81763300  1
  C  1177  1  0.11011800  0.66420000  0.82576700  1
  C  1178  1  0.10534800  0.66433300  0.84289000  1
  C  1179  1  0.73986600  0.67244900  0.81883700  1
  C  1183  1  0.73119400  0.67561800  0.85580500  1
  C  1187  1  0.24304900  0.66131300  0.81601300  1
  C  1191  1  0.23306300  0.66083600  0.85035200  1
  C  1195  1  0.96342200  0.66034900  0.86457700  1
  C  1197  1  0.98389700  0.65873800  0.79847200  1
  C  1199  1  0.97957100  0.17176300  0.32218900  1
  C  1200  1  0.86127100  0.16061600  0.31818900  1
  C  1201  1  0.86533400  0.14406200  0.31915500  1
  C  1202  1  0.98958900  0.13810500  0.32313600  1
  C  1203  1  0.11096100  0.14808800  0.32492900  1
  C  1204  1  0.10565900  0.16509800  0.32484300  1
  C  1205  1  0.74086200  0.13281600  0.31680800  1
  C  1209  1  0.73112800  0.16662100  0.31363400  1
  C  1213  1  0.24425300  0.14122300  0.32772300  1
  C  1217  1  0.23316900  0.17610300  0.32834900  1
  C  1221  1  0.96331100  0.19071800  0.32884800  1
  C  1223  1  0.98606000  0.12623800  0.33044000  1
  H  7  1  0.98211300  0.84405100  0.35513300  1
  H  8  1  0.02704900  0.80542900  0.29917800  1
  H  9  1  0.98122200  0.78738400  0.33697000  1
  H  19  1  0.98217900  0.49759100  0.14515300  1
  H  20  1  0.02707000  0.48023900  0.18376200  1
  H  21  1  0.98120800  0.53608100  0.20182500  1
  H  31  1  0.98217000  0.63406400  0.49161100  1
  H  32  1  0.02711500  0.69002000  0.50894300  1
  H  33  1  0.98134000  0.65222600  0.45310600  1
  H  43  1  0.98204100  0.13974300  0.63947100  1
  H  44  1  0.02706400  0.17836300  0.69542800  1
  H  45  1  0.98117800  0.19641100  0.65763900  1
  H  55  1  0.98210800  0.48620600  0.84944900  1
  H  56  1  0.02704900  0.50354300  0.81083000  1
  H  57  1  0.98121300  0.44770500  0.79278300  1
  H  67  1  0.98216400  0.34973500  0.50299300  1
  H  68  1  0.02704900  0.29377500  0.48564400  1
  H  69  1  0.98120300  0.33155500  0.54148500  1
  H  79  1  0.97940400  0.48553500  0.63986000  1
  H  80  1  0.97760500  0.50330100  0.69620100  1
  H  81  1  0.99215100  0.44726500  0.65832400  1
  H  91  1  0.97927700  0.34933500  0.84837900  1
  H  92  1  0.97752900  0.29298600  0.80982000  1
  H  93  1  0.99198900  0.33084400  0.79163800  1
  H  103  1  0.97938900  0.14080100  0.50365500  1
  H  104  1  0.97766000  0.17937200  0.48588200  1
  H  105  1  0.99268100  0.19753400  0.54191900  1
  H  115  1  0.97931300  0.49824500  0.35474500  1
  H  116  1  0.97753500  0.48046900  0.29840000  1
  H  117  1  0.99242400  0.53650700  0.33627200  1
  H  127  1  0.97941400  0.63445700  0.14622100  1
  H  128  1  0.97760900  0.69079800  0.18479700  1
  H  129  1  0.99215500  0.65292100  0.20295600  1
  H  139  1  0.97929700  0.84298000  0.49093800  1
  H  140  1  0.97764500  0.80441700  0.50872100  1
  H  141  1  0.99215100  0.78624300  0.45268400  1
  H  151  1  0.99132300  0.91240000  0.22063100  1
  H  152  1  0.99206400  0.86956900  0.23252300  1
  H  153  1  0.97840700  0.92382100  0.27540800  1
  H  163  1  0.99115600  0.29472800  0.07679300  1
  H  164  1  0.99180800  0.34945500  0.11962000  1
  H  165  1  0.97822600  0.33808100  0.06536700  1
  H  175  1  0.99129600  0.76855000  0.69446300  1
  H  176  1  0.99171600  0.75665900  0.63973800  1
  H  177  1  0.97860500  0.71377200  0.65110500  1
  H  187  1  0.99123500  0.07136500  0.77393900  1
  H  188  1  0.99184800  0.11420700  0.76206200  1
  H  189  1  0.97839300  0.05995800  0.71916600  1
  H  199  1  0.99135300  0.68905900  0.91780000  1
  H  200  1  0.99207500  0.63433600  0.87497000  1
  H  201  1  0.97843700  0.64570400  0.92922200  1
  H  211  1  0.99116100  0.21522500  0.30013000  1
  H  212  1  0.99179200  0.22712800  0.35485800  1
  H  213  1  0.97824000  0.27000500  0.34348000  1
  H  223  1  0.98636300  0.68842200  0.77457600  1
  H  224  1  0.99399000  0.63331700  0.76151600  1
  H  225  1  0.99074100  0.64583400  0.71945700  1
  H  235  1  0.98559800  0.21460900  0.91654300  1
  H  236  1  0.98932600  0.22767100  0.87449100  1
  H  237  1  0.99102400  0.26972500  0.92907000  1
  H  247  1  0.98580400  0.07264300  0.30076200  1
  H  248  1  0.99138800  0.11469700  0.35587200  1
  H  249  1  0.99084100  0.06012000  0.34335500  1
  H  259  1  0.98589400  0.29534900  0.21999900  1
  H  260  1  0.99129100  0.35046300  0.23306600  1
  H  261  1  0.99091300  0.33793500  0.27511700  1
  H  271  1  0.98628200  0.76916600  0.07804300  1
  H  272  1  0.99394000  0.75611200  0.12009200  1
  H  273  1  0.99070100  0.71404800  0.06551900  1
  H  283  1  0.98571300  0.91114900  0.69382500  1
  H  284  1  0.99034600  0.86909200  0.63871400  1
  H  285  1  0.99091200  0.92366700  0.65123000  1
  H  296  1  0.31667600  0.85963200  0.30497000  1
  H  297  1  0.22765500  0.84018200  0.30120500  1
  H  298  1  0.21420100  0.86098900  0.32250500  1
  H  300  1  0.23482600  0.88519700  0.28201900  1
  H  301  1  0.30606200  0.86511500  0.27999300  1
  H  302  1  0.28766000  0.88534900  0.30181800  1
  H  304  1  0.71404100  0.85116000  0.31325100  1
  H  305  1  0.65814900  0.84584300  0.29127600  1
  H  306  1  0.65046600  0.86865700  0.31012300  1
  H  308  1  0.74474500  0.87782600  0.27096000  1
  H  309  1  0.66323700  0.88097400  0.29065600  1
  H  310  1  0.67716300  0.85869400  0.27108300  1
  H  312  1  0.02803900  0.86451600  0.25627900  1
  H  314  1  0.91673900  0.82894200  0.29796300  1
  H  322  1  0.31670600  0.43183900  0.12960300  1
  H  323  1  0.22756500  0.44752700  0.14903800  1
  H  324  1  0.21432700  0.44801400  0.12822500  1
  H  326  1  0.23482600  0.38332900  0.10395900  1
  H  327  1  0.30606300  0.40136100  0.12405700  1
  H  328  1  0.28764100  0.40299600  0.10384900  1
  H  330  1  0.71406600  0.44859000  0.13799700  1
  H  331  1  0.65810300  0.43194200  0.14332400  1
  H  332  1  0.65053800  0.42795900  0.12050500  1
  H  334  1  0.74480500  0.37964000  0.11138800  1
  H  335  1  0.66328800  0.39617200  0.10821300  1
  H  336  1  0.67718200  0.39890400  0.13050300  1
  H  338  1  0.02868300  0.37824700  0.12464200  1
  H  340  1  0.91665200  0.45552400  0.16024600  1
  H  348  1  0.31669700  0.68430900  0.55735100  1
  H  349  1  0.22751700  0.68805100  0.54166400  1
  H  350  1  0.21438900  0.66674900  0.54117200  1
  H  352  1  0.23478500  0.70716100  0.60586000  1
  H  353  1  0.30593700  0.70923800  0.58782800  1
  H  354  1  0.28770200  0.68739000  0.58618900  1
  H  356  1  0.71405100  0.67592500  0.54058700  1
  H  357  1  0.65800100  0.69788400  0.55726200  1
  H  358  1  0.65047600  0.67901800  0.56120100  1
  H  360  1  0.74467500  0.71816500  0.60955900  1
  H  361  1  0.66327800  0.69846100  0.59300000  1
  H  362  1  0.67693800  0.71804900  0.59031500  1
  H  364  1  0.02816600  0.73290000  0.61093700  1
  H  366  1  0.91681900  0.69124200  0.53366900  1
  H  374  1  0.31677700  0.12415100  0.68961700  1
  H  375  1  0.22778100  0.14360400  0.69338300  1
  H  376  1  0.21429200  0.12279500  0.67208200  1
  H  378  1  0.23485700  0.09859100  0.71257700  1
  H  379  1  0.30611900  0.11867000  0.71459800  1
  H  380  1  0.28770200  0.09843500  0.69277500  1
  H  382  1  0.71411600  0.13265000  0.68135100  1
  H  383  1  0.65824800  0.13797400  0.70332900  1
  H  384  1  0.65043600  0.11516000  0.68448400  1
  H  386  1  0.74475000  0.10597800  0.72364100  1
  H  387  1  0.66324900  0.10283000  0.70394300  1
  H  388  1  0.67719600  0.12511100  0.72351600  1
  H  390  1  0.02816100  0.11925800  0.73830700  1
  H  392  1  0.91708700  0.15485300  0.69666300  1
  H  400  1  0.31667600  0.55195100  0.86503200  1
  H  401  1  0.22765400  0.53626600  0.84558100  1
  H  402  1  0.21420000  0.53577400  0.86639000  1
  H  404  1  0.23483100  0.60046800  0.89059700  1
  H  405  1  0.30606200  0.58241100  0.87051500  1
  H  406  1  0.28766600  0.58082100  0.89075000  1
  H  408  1  0.71403600  0.53520000  0.85656200  1
  H  409  1  0.65814800  0.55185700  0.85124500  1
  H  410  1  0.65046600  0.55582600  0.87406000  1
  H  412  1  0.74475000  0.60415700  0.88322800  1
  H  413  1  0.66324200  0.58760900  0.88637600  1
  H  414  1  0.67716600  0.58490400  0.86409700  1
  H  416  1  0.02803500  0.60552800  0.86991700  1
  H  418  1  0.91673300  0.52827000  0.83434300  1
  H  426  1  0.31669200  0.29953100  0.43724100  1
  H  427  1  0.22755300  0.29578500  0.45293000  1
  H  428  1  0.21431200  0.31708400  0.45341500  1
  H  430  1  0.23481600  0.27666500  0.38873000  1
  H  431  1  0.30605400  0.27459900  0.40676400  1
  H  432  1  0.28763500  0.29644400  0.40839900  1
  H  434  1  0.71405600  0.30788700  0.45399000  1
  H  435  1  0.65809200  0.28591300  0.43734400  1
  H  436  1  0.65052700  0.30474800  0.43335800  1
  H  438  1  0.74480000  0.26554800  0.38504100  1
  H  439  1  0.66328200  0.28525500  0.40157400  1
  H  440  1  0.67717200  0.26569600  0.40430500  1
  H  442  1  0.02867600  0.25090000  0.38364900  1
  H  444  1  0.91664300  0.29257500  0.46092600  1
  H  452  1  0.65789700  0.55079200  0.68905600  1
  H  453  1  0.74882300  0.53543200  0.69310400  1
  H  454  1  0.76218600  0.53472800  0.67170200  1
  H  456  1  0.73427300  0.59946400  0.71160000  1
  H  457  1  0.66486500  0.58141400  0.71380700  1
  H  458  1  0.68373300  0.57957100  0.69187700  1
  H  460  1  0.26192600  0.53538500  0.68111200  1
  H  461  1  0.31630200  0.55203200  0.70318400  1
  H  462  1  0.32347400  0.55618400  0.68445300  1
  H  464  1  0.22408100  0.60419000  0.72378600  1
  H  465  1  0.30715000  0.58795300  0.70405900  1
  H  466  1  0.29342800  0.58494500  0.72345200  1
  H  468  1  0.93365900  0.60517400  0.73759700  1
  H  470  1  0.06217400  0.52839400  0.69685100  1
  H  478  1  0.65740400  0.30027300  0.86453700  1
  H  479  1  0.74824100  0.29619200  0.84511000  1
  H  480  1  0.76197000  0.31759300  0.86580300  1
  H  482  1  0.73345400  0.27760200  0.89056000  1
  H  483  1  0.66410600  0.27545800  0.87032500  1
  H  484  1  0.68306000  0.29735900  0.89044700  1
  H  486  1  0.26158800  0.30804500  0.85697400  1
  H  487  1  0.31565100  0.28595500  0.85153400  1
  H  488  1  0.32307900  0.30468000  0.87441800  1
  H  490  1  0.22316600  0.26538100  0.88310900  1
  H  491  1  0.30653800  0.28507400  0.88656600  1
  H  492  1  0.29247900  0.26567600  0.86417400  1
  H  494  1  0.93349200  0.25159600  0.87022100  1
  H  496  1  0.06158000  0.29232700  0.83427500  1
  H  504  1  0.65769300  0.12467500  0.43841600  1
  H  505  1  0.74854500  0.14409700  0.45376900  1
  H  506  1  0.76218500  0.12340200  0.45447300  1
  H  508  1  0.73380200  0.09863400  0.38973000  1
  H  509  1  0.66442500  0.11887000  0.40781300  1
  H  510  1  0.68338300  0.09875500  0.40960300  1
  H  512  1  0.26179100  0.13219000  0.45376600  1
  H  513  1  0.31595300  0.13764300  0.43712800  1
  H  514  1  0.32322200  0.11475100  0.43295000  1
  H  516  1  0.22354000  0.10612000  0.38497800  1
  H  517  1  0.30682000  0.10263300  0.40120100  1
  H  518  1  0.29282600  0.12503800  0.40422400  1
  H  520  1  0.93358900  0.11895200  0.38404400  1
  H  522  1  0.06219600  0.15491300  0.46078700  1
  H  530  1  0.65762400  0.43300500  0.30559200  1
  H  531  1  0.74859100  0.44836000  0.30154000  1
  H  532  1  0.76202900  0.44905900  0.32293900  1
  H  534  1  0.73376600  0.38432700  0.28303000  1
  H  535  1  0.66438500  0.40238600  0.28083600  1
  H  536  1  0.68335800  0.40421800  0.30275900  1
  H  538  1  0.26173800  0.44835500  0.31348600  1
  H  539  1  0.31595900  0.43172000  0.29140000  1
  H  540  1  0.32312100  0.42753800  0.31011100  1
  H  542  1  0.22342900  0.37956900  0.27075200  1
  H  543  1  0.30673000  0.39578500  0.29046500  1
  H  544  1  0.29276600  0.39881600  0.27108800  1
  H  546  1  0.93312900  0.37862700  0.25700000  1
  H  548  1  0.06218500  0.45538000  0.29776900  1
  H  556  1  0.65790600  0.68365600  0.13016500  1
  H  557  1  0.74884200  0.68770200  0.14957200  1
  H  558  1  0.76219200  0.66630000  0.12887300  1
  H  560  1  0.73427100  0.70619900  0.10403800  1
  H  561  1  0.66487000  0.70840700  0.12429500  1
  H  562  1  0.68373100  0.68647800  0.10420700  1
  H  564  1  0.26194100  0.67570700  0.13762100  1
  H  565  1  0.31631800  0.69778100  0.14304600  1
  H  566  1  0.32347800  0.67904900  0.12016300  1
  H  568  1  0.22407700  0.71838200  0.11149200  1
  H  569  1  0.30714900  0.69865600  0.10800200  1
  H  570  1  0.29343900  0.71804900  0.13040300  1
  H  572  1  0.93367900  0.73219600  0.12432200  1
  H  574  1  0.06220400  0.69144700  0.16035400  1
  H  582  1  0.65748600  0.85913500  0.55616400  1
  H  583  1  0.74830700  0.83970700  0.54081200  1
  H  584  1  0.76203400  0.86040200  0.54010800  1
  H  586  1  0.73358600  0.88515400  0.60485500  1
  H  587  1  0.66421700  0.86492200  0.58676600  1
  H  588  1  0.68318100  0.88504300  0.58498700  1
  H  590  1  0.26164700  0.85157300  0.54081600  1
  H  591  1  0.31573700  0.84612500  0.55745800  1
  H  592  1  0.32316100  0.86901300  0.56162600  1
  H  594  1  0.22331900  0.87768500  0.60961200  1
  H  595  1  0.30665500  0.88115400  0.59338000  1
  H  596  1  0.29261800  0.85875800  0.59037700  1
  H  598  1  0.93350300  0.86482800  0.61053000  1
  H  600  1  0.06164900  0.82887400  0.53383900  1
  H  608  1  0.65387300  0.73704300  0.27793500  1
  H  609  1  0.69973300  0.75872600  0.28173500  1
  H  610  1  0.76951400  0.75007400  0.29533700  1
  H  612  1  0.74287300  0.69660500  0.23468000  1
  H  613  1  0.64673600  0.71687700  0.24533500  1
  H  614  1  0.71017500  0.70677900  0.25808100  1
  H  616  1  0.21963900  0.76758000  0.28125800  1
  H  617  1  0.25054000  0.75882400  0.25784200  1
  H  618  1  0.30705900  0.74698400  0.26915700  1
  H  620  1  0.20722100  0.70684600  0.22143200  1
  H  621  1  0.30173700  0.71903300  0.24137300  1
  H  622  1  0.24283700  0.72998500  0.22928700  1
  H  624  1  0.90445700  0.70866900  0.21450000  1
  H  626  1  0.92394000  0.77671000  0.28140200  1
  H  634  1  0.65384200  0.52733300  0.25213400  1
  H  635  1  0.69986400  0.50946800  0.23045100  1
  H  636  1  0.76950000  0.53173200  0.23912500  1
  H  638  1  0.74292600  0.52456800  0.29259300  1
  H  639  1  0.64678700  0.51493500  0.27232100  1
  H  640  1  0.71026600  0.53777500  0.28239900  1
  H  642  1  0.21984100  0.50022600  0.22165000  1
  H  643  1  0.25077700  0.48553700  0.23037000  1
  H  644  1  0.30715000  0.50869800  0.24225200  1
  H  646  1  0.20711500  0.50100900  0.28232200  1
  H  647  1  0.30172700  0.50880700  0.27017900  1
  H  648  1  0.24287200  0.48576500  0.25917900  1
  H  650  1  0.90398100  0.49233400  0.28055700  1
  H  652  1  0.92414700  0.49116800  0.21248500  1
  H  660  1  0.65389300  0.71127100  0.46182500  1
  H  661  1  0.69983900  0.70743700  0.47968200  1
  H  662  1  0.76961500  0.69386700  0.45742200  1
  H  664  1  0.74284400  0.75451800  0.46463500  1
  H  665  1  0.64672100  0.74385800  0.47424800  1
  H  666  1  0.71028600  0.73111500  0.45141200  1
  H  668  1  0.21978000  0.70792100  0.48898200  1
  H  669  1  0.25058100  0.73133300  0.50368300  1
  H  670  1  0.30716600  0.72006400  0.48053100  1
  H  672  1  0.20700400  0.76781800  0.48821200  1
  H  673  1  0.30166100  0.74788100  0.48041200  1
  H  674  1  0.24274100  0.75991200  0.50344900  1
  H  676  1  0.90390100  0.77471400  0.49686200  1
  H  678  1  0.92392000  0.70778800  0.49799300  1
  H  686  1  0.65393400  0.24673900  0.71665200  1
  H  687  1  0.69983400  0.22505100  0.71283200  1
  H  688  1  0.76966600  0.23372700  0.69925500  1
  H  690  1  0.74277200  0.28716700  0.75992800  1
  H  691  1  0.64667600  0.26689200  0.74925300  1
  H  692  1  0.71019600  0.27700300  0.73652500  1
  H  694  1  0.21974100  0.21621700  0.71334600  1
  H  695  1  0.25045400  0.22493600  0.73676200  1
  H  696  1  0.30714500  0.23680900  0.72548800  1
  H  698  1  0.20700800  0.27690700  0.77322000  1
  H  699  1  0.30164000  0.26474800  0.75328400  1
  H  700  1  0.24266400  0.25376400  0.76533500  1
  H  702  1  0.90427000  0.27511000  0.78011400  1
  H  704  1  0.92406600  0.20708900  0.71321200  1
  H  712  1  0.65387300  0.45640400  0.74244300  1
  H  713  1  0.69973300  0.47428500  0.76412700  1
  H  714  1  0.76950900  0.45203200  0.75547400  1
  H  716  1  0.74286400  0.45922700  0.70200900  1
  H  717  1  0.64673600  0.46884100  0.72228000  1
  H  718  1  0.71016600  0.44599800  0.71217900  1
  H  720  1  0.21963900  0.48361500  0.77298100  1
  H  721  1  0.25054000  0.49827700  0.76422700  1
  H  722  1  0.30705900  0.47512200  0.75238500  1
  H  724  1  0.20722100  0.48271300  0.71225000  1
  H  725  1  0.30173700  0.47495800  0.72443600  1
  H  726  1  0.24283800  0.49799600  0.73538900  1
  H  728  1  0.90446300  0.49146800  0.71407300  1
  H  730  1  0.92394000  0.49260100  0.78211100  1
  H  738  1  0.65388200  0.27249100  0.53273900  1
  H  739  1  0.69987900  0.27630800  0.51487300  1
  H  740  1  0.76950800  0.28990300  0.53713700  1
  H  742  1  0.74305100  0.22927000  0.52997800  1
  H  743  1  0.64688200  0.23990600  0.52034400  1
  H  744  1  0.71035100  0.25267000  0.54318200  1
  H  746  1  0.21984500  0.27588100  0.50562900  1
  H  747  1  0.25081100  0.25247100  0.49094200  1
  H  748  1  0.30718900  0.26375600  0.51410300  1
  H  750  1  0.20725100  0.21599500  0.50642000  1
  H  751  1  0.30182300  0.23593900  0.51421600  1
  H  752  1  0.24296800  0.22389400  0.49117600  1
  H  754  1  0.90410800  0.20907800  0.49774800  1
  H  756  1  0.92414300  0.27598100  0.49657200  1
  H  764  1  0.31498400  0.82584800  0.42768000  1
  H  765  1  0.24047600  0.81005400  0.43265900  1
  H  766  1  0.20438100  0.83383600  0.44630800  1
  H  768  1  0.22932200  0.82794200  0.38680100  1
  H  769  1  0.31149100  0.81555700  0.39572100  1
  H  770  1  0.27371600  0.83932900  0.40990400  1
  H  772  1  0.71935800  0.81384300  0.43665800  1
  H  773  1  0.67616000  0.79882200  0.41361300  1
  H  774  1  0.64635200  0.82281400  0.42403400  1
  H  776  1  0.74889800  0.81117800  0.37513200  1
  H  777  1  0.65890700  0.82153500  0.39563700  1
  H  778  1  0.69366200  0.79761300  0.38421600  1
  H  780  1  0.04730000  0.79891500  0.36701500  1
  H  782  1  0.95751900  0.79633200  0.43295000  1
  H  790  1  0.31487800  0.58832000  0.16332200  1
  H  791  1  0.24036000  0.60909600  0.17911200  1
  H  792  1  0.20422300  0.59895000  0.15533000  1
  H  794  1  0.22936700  0.54537400  0.16130700  1
  H  795  1  0.31148100  0.56668700  0.17366200  1
  H  796  1  0.27375200  0.55705700  0.14988500  1
  H  798  1  0.71919100  0.60929200  0.17534400  1
  H  799  1  0.67611100  0.60129600  0.19039100  1
  H  800  1  0.64624100  0.58769900  0.16640300  1
  H  802  1  0.74888900  0.55046600  0.17807000  1
  H  803  1  0.65887600  0.56060200  0.16770300  1
  H  804  1  0.69366700  0.57311700  0.19162200  1
  H  806  1  0.04685700  0.55462400  0.19032700  1
  H  808  1  0.95693300  0.62309700  0.19284800  1
  H  816  1  0.31480600  0.56148100  0.40086000  1
  H  817  1  0.24021400  0.55649600  0.38009000  1
  H  818  1  0.20412300  0.54286100  0.39023900  1
  H  820  1  0.22940200  0.60239500  0.44382300  1
  H  821  1  0.31149600  0.59344600  0.42250900  1
  H  822  1  0.27373600  0.57928800  0.43212700  1
  H  824  1  0.71907500  0.55254700  0.37993000  1
  H  825  1  0.67602400  0.57559100  0.38792800  1
  H  826  1  0.64624200  0.56520400  0.40152900  1
  H  828  1  0.74899400  0.61410500  0.43874100  1
  H  829  1  0.65891600  0.59360800  0.42861400  1
  H  830  1  0.69374400  0.60500400  0.41609200  1
  H  832  1  0.04711900  0.62218200  0.43458000  1
  H  834  1  0.95639300  0.55621200  0.36608500  1
  H  842  1  0.31480200  0.15803300  0.56695200  1
  H  843  1  0.23991100  0.17378100  0.56193900  1
  H  844  1  0.20427500  0.14998400  0.54831100  1
  H  846  1  0.22927600  0.15586400  0.60779400  1
  H  847  1  0.31130900  0.16827600  0.59889300  1
  H  848  1  0.27371600  0.14450200  0.58469300  1
  H  850  1  0.71886800  0.16983600  0.55791600  1
  H  851  1  0.67561400  0.18488500  0.58095200  1
  H  852  1  0.64617000  0.16089100  0.57057800  1
  H  854  1  0.74886200  0.17265200  0.61950700  1
  H  855  1  0.65883600  0.16224500  0.59900400  1
  H  856  1  0.69343600  0.18617000  0.61038000  1
  H  858  1  0.04722000  0.18488400  0.62759500  1
  H  860  1  0.95558900  0.18741400  0.56160400  1
  H  868  1  0.31497900  0.39546700  0.83126100  1
  H  869  1  0.24053200  0.37469200  0.81546000  1
  H  870  1  0.20436100  0.38482000  0.83923700  1
  H  872  1  0.22930700  0.43843500  0.83334300  1
  H  873  1  0.31150100  0.41713100  0.82096500  1
  H  874  1  0.27368100  0.42672100  0.84473400  1
  H  876  1  0.71940700  0.37446300  0.81922300  1
  H  877  1  0.67622700  0.38248900  0.80420400  1
  H  878  1  0.64636200  0.39605500  0.82819400  1
  H  880  1  0.74889800  0.43333200  0.81657100  1
  H  881  1  0.65890000  0.42317700  0.82692200  1
  H  882  1  0.69370400  0.41068100  0.80300100  1
  H  884  1  0.04730600  0.42919000  0.80431400  1
  H  886  1  0.95772200  0.36067000  0.80172300  1
  H  894  1  0.31487700  0.42229700  0.59372200  1
  H  895  1  0.24035600  0.42728200  0.61449800  1
  H  896  1  0.20421900  0.44091800  0.60435300  1
  H  898  1  0.22935800  0.38136500  0.55077600  1
  H  899  1  0.31147600  0.39032400  0.57208800  1
  H  900  1  0.27374200  0.40447100  0.56246000  1
  H  902  1  0.71919100  0.43124800  0.61469600  1
  H  903  1  0.67610600  0.40820500  0.60669900  1
  H  904  1  0.64623500  0.41859600  0.59310300  1
  H  906  1  0.74887400  0.36969700  0.55586900  1
  H  907  1  0.65886600  0.39020000  0.56600500  1
  H  908  1  0.69365700  0.37879400  0.57851900  1
  H  910  1  0.04684200  0.36159600  0.56002500  1
  H  912  1  0.95693800  0.42754900  0.62850100  1
  H  920  1  0.64820200  0.97772300  0.26836800  1
  H  921  1  0.71911100  0.96270200  0.27469900  1
  H  922  1  0.75682400  0.96048400  0.25305500  1
  H  924  1  0.73780000  0.02603200  0.29223500  1
  H  925  1  0.65572200  0.00828000  0.29367900  1
  H  926  1  0.69106400  0.00639000  0.27202700  1
  H  928  1  0.23948600  0.95869500  0.27018300  1
  H  929  1  0.28447800  0.97682700  0.29192700  1
  H  930  1  0.31550900  0.97805500  0.27175800  1
  H  932  1  0.22156400  0.02832400  0.30605400  1
  H  933  1  0.30804500  0.01008200  0.28833500  1
  H  934  1  0.27380800  0.01014200  0.30910300  1
  H  936  1  0.93343200  0.03179200  0.31951500  1
  H  938  1  0.98869100  0.95294000  0.28143900  1
  H  946  1  0.64812100  0.27723000  0.01147100  1
  H  947  1  0.71933700  0.29855500  0.02649900  1
  H  948  1  0.75663700  0.27911000  0.02870300  1
  H  950  1  0.73778900  0.25269200  0.96317000  1
  H  951  1  0.65579400  0.27191700  0.98089700  1
  H  952  1  0.69097900  0.25217700  0.98283500  1
  H  954  1  0.23963300  0.29790900  0.03049200  1
  H  955  1  0.28478700  0.30153300  0.01237300  1
  H  956  1  0.31550300  0.28012000  0.01112400  1
  H  958  1  0.22153900  0.26421700  0.96086600  1
  H  959  1  0.30801400  0.26470000  0.97909100  1
  H  960  1  0.27396000  0.28542700  0.97906200  1
  H  962  1  0.93294800  0.27419100  0.95738900  1
  H  964  1  0.98924000  0.31499400  0.03625300  1
  H  972  1  0.64795800  0.72076600  0.71203200  1
  H  973  1  0.71882600  0.71444000  0.69067900  1
  H  974  1  0.75644100  0.73609100  0.71010100  1
  H  976  1  0.73788500  0.69695100  0.73650900  1
  H  977  1  0.65574300  0.69547500  0.71730200  1
  H  978  1  0.69102500  0.71714300  0.73705000  1
  H  980  1  0.23916300  0.71902600  0.69119200  1
  H  981  1  0.28440700  0.69729900  0.68760700  1
  H  982  1  0.31533300  0.71749000  0.70899200  1
  H  984  1  0.22169000  0.68320300  0.72500500  1
  H  985  1  0.30804900  0.70092500  0.72446900  1
  H  986  1  0.27394500  0.68014400  0.70377000  1
  H  988  1  0.93343700  0.66968100  0.71498000  1
  H  990  1  0.98735700  0.70773900  0.67419500  1
  H  998  1  0.64814000  0.00605700  0.72620400  1
  H  999  1  0.71903400  0.02107900  0.71987300  1
  H  1000  1  0.75674300  0.02329900  0.74151800  1
  H  1002  1  0.73784100  0.95774800  0.70233900  1
  H  1003  1  0.65572700  0.97549800  0.70089400  1
  H  1004  1  0.69106000  0.97739000  0.72254700  1
  H  1006  1  0.23944100  0.02510000  0.72439100  1
  H  1007  1  0.28448600  0.00696600  0.70265100  1
  H  1008  1  0.31551800  0.00574900  0.72282600  1
  H  1010  1  0.22163000  0.95546900  0.68854400  1
  H  1011  1  0.30806500  0.97371700  0.70626300  1
  H  1012  1  0.27389300  0.97364600  0.68548800  1
  H  1014  1  0.93350800  0.95199700  0.67506600  1
  H  1016  1  0.98847500  0.03083300  0.71312800  1
  H  1024  1  0.64822200  0.70665100  0.98313000  1
  H  1025  1  0.71910600  0.68529700  0.96810800  1
  H  1026  1  0.75682800  0.70472300  0.96588800  1
  H  1028  1  0.73788100  0.73109000  0.03143900  1
  H  1029  1  0.65576300  0.71189600  0.01368700  1
  H  1030  1  0.69112600  0.73165900  0.01179700  1
  H  1032  1  0.23948000  0.68579900  0.96409000  1
  H  1033  1  0.28449700  0.68218800  0.98222100  1
  H  1034  1  0.31552400  0.70358300  0.98344600  1
  H  1036  1  0.22164000  0.71956100  0.03371800  1
  H  1037  1  0.30809900  0.71903500  0.01547300  1
  H  1038  1  0.27386900  0.69832900  0.01553600  1
  H  1040  1  0.93364400  0.70955600  0.03718800  1
  H  1042  1  0.98861400  0.66879200  0.95834200  1
  H  1050  1  0.64811500  0.26304100  0.28261900  1
  H  1051  1  0.71930700  0.26934300  0.30394800  1
  H  1052  1  0.75662200  0.24769300  0.28450500  1
  H  1054  1  0.73781500  0.28680000  0.25807800  1
  H  1055  1  0.65580200  0.28830000  0.27730400  1
  H  1056  1  0.69099500  0.26662100  0.25756400  1
  H  1058  1  0.23960300  0.26470500  0.30331000  1
  H  1059  1  0.28476500  0.28644700  0.30693000  1
  H  1060  1  0.31549300  0.26628000  0.28551900  1
  H  1062  1  0.22156000  0.30062600  0.26960300  1
  H  1063  1  0.30802800  0.28288800  0.27009500  1
  H  1064  1  0.27396000  0.30364800  0.29081800  1
  H  1066  1  0.93305700  0.31408300  0.27958300  1
  H  1068  1  0.98915300  0.27603000  0.32039000  1
  H  1076  1  0.64888400  0.82176700  0.14277700  1
  H  1077  1  0.71686500  0.80083100  0.13846800  1
  H  1078  1  0.75764600  0.80999500  0.12410400  1
  H  1080  1  0.74028700  0.86396200  0.18421200  1
  H  1081  1  0.65616600  0.84276800  0.17511200  1
  H  1082  1  0.69322700  0.85269500  0.16121000  1
  H  1084  1  0.23785500  0.79824500  0.13315400  1
  H  1085  1  0.28302800  0.80664600  0.15619200  1
  H  1086  1  0.31556000  0.81959300  0.14516900  1
  H  1088  1  0.22175200  0.85811400  0.19393800  1
  H  1089  1  0.30898500  0.84706900  0.17324800  1
  H  1090  1  0.27232700  0.83531600  0.18537400  1
  H  1092  1  0.92321800  0.85357100  0.20298500  1
  H  1094  1  0.97521000  0.78599800  0.13810200  1
  H  1102  1  0.64954600  0.30764400  0.16761200  1
  H  1103  1  0.71854900  0.32418400  0.18851400  1
  H  1104  1  0.75854200  0.30062000  0.17925900  1
  H  1106  1  0.73998300  0.30678800  0.12532800  1
  H  1107  1  0.65637500  0.31891500  0.14656100  1
  H  1108  1  0.69305600  0.29507500  0.13662700  1
  H  1110  1  0.23946100  0.32118400  0.19072000  1
  H  1111  1  0.28433600  0.33590400  0.18240400  1
  H  1112  1  0.31645400  0.31193100  0.16933600  1
  H  1114  1  0.22154300  0.32239100  0.13101400  1
  H  1115  1  0.30905100  0.31264900  0.14194200  1
  H  1116  1  0.27268100  0.33653600  0.15379700  1
  H  1118  1  0.92319200  0.33592000  0.13563000  1
  H  1120  1  0.98183900  0.33862300  0.20316800  1
  H  1128  1  0.64986500  0.84645600  0.68145300  1
  H  1129  1  0.71930600  0.85083400  0.66494700  1
  H  1130  1  0.75889700  0.86513100  0.68852600  1
  H  1132  1  0.73992900  0.80507100  0.68240500  1
  H  1133  1  0.65654100  0.81415400  0.67024200  1
  H  1134  1  0.69305200  0.82808400  0.69408400  1
  H  1136  1  0.24011700  0.85602700  0.66810200  1
  H  1137  1  0.28495200  0.83299200  0.65336500  1
  H  1138  1  0.31676300  0.84386700  0.67734400  1
  H  1140  1  0.22149900  0.79507200  0.66679300  1
  H  1141  1  0.30911600  0.81573500  0.67657200  1
  H  1142  1  0.27287300  0.80373700  0.65268000  1
  H  1144  1  0.92294500  0.78620300  0.65328900  1
  H  1146  1  0.98441900  0.85103700  0.65055300  1
  H  1154  1  0.64987100  0.16241200  0.85178800  1
  H  1155  1  0.71996300  0.18327400  0.85621000  1
  H  1156  1  0.75880500  0.17394500  0.87048800  1
  H  1158  1  0.73987100  0.11997800  0.81051200  1
  H  1159  1  0.65668300  0.14123200  0.81952500  1
  H  1160  1  0.69293100  0.13138700  0.83352300  1
  H  1162  1  0.24062900  0.18511800  0.86146600  1
  H  1163  1  0.28562500  0.17684400  0.83843900  1
  H  1164  1  0.31693900  0.16369600  0.84927900  1
  H  1166  1  0.22143800  0.12554200  0.80045300  1
  H  1167  1  0.30909500  0.13636700  0.82111600  1
  H  1168  1  0.27315100  0.14831000  0.80916000  1
  H  1170  1  0.92246500  0.13017000  0.79160300  1
  H  1172  1  0.98673700  0.19777900  0.85643400  1
  H  1180  1  0.64889900  0.67629400  0.82717900  1
  H  1181  1  0.71683600  0.65966400  0.80624000  1
  H  1182  1  0.75766300  0.68319100  0.81540400  1
  H  1184  1  0.74032100  0.67704500  0.86936900  1
  H  1185  1  0.65617700  0.66495500  0.84817700  1
  H  1186  1  0.69326900  0.68878300  0.85810400  1
  H  1188  1  0.23783800  0.66237300  0.80364000  1
  H  1189  1  0.28300100  0.64773800  0.81204300  1
  H  1190  1  0.31556400  0.67170700  0.82498800  1
  H  1192  1  0.22177600  0.66146500  0.86351200  1
  H  1193  1  0.30900900  0.67110600  0.85246400  1
  H  1194  1  0.27232100  0.64722800  0.84071400  1
  H  1196  1  0.92323800  0.64787800  0.85897300  1
  H  1198  1  0.97506300  0.64519100  0.79140100  1
  H  1206  1  0.64954100  0.13732700  0.31305200  1
  H  1207  1  0.71855300  0.13296600  0.32959200  1
  H  1208  1  0.75852700  0.11865500  0.30602700  1
  H  1210  1  0.73996800  0.17875600  0.31219900  1
  H  1211  1  0.65637900  0.16965000  0.32432700  1
  H  1212  1  0.69303000  0.15574500  0.30048600  1
  H  1214  1  0.23946200  0.12775200  0.32658100  1
  H  1215  1  0.28435600  0.15078900  0.34130000  1
  H  1216  1  0.31644800  0.13988100  0.31732600  1
  H  1218  1  0.22155400  0.18866700  0.32778900  1
  H  1219  1  0.30904900  0.16799400  0.31804400  1
  H  1220  1  0.27270700  0.18002700  0.34193300  1
  H  1222  1  0.92322300  0.19758300  0.34132500  1
  H  1224  1  0.98180300  0.13274900  0.34402600  1
  N  10  1  0.00367000  0.77612500  0.30276600  1
  N  11  1  0.97638600  0.82080000  0.36673000  1
  N  12  1  0.99934300  0.84072200  0.32260800  1
  N  22  1  0.00366500  0.51313000  0.21307500  1
  N  23  1  0.97645700  0.53243600  0.16841200  1
  N  24  1  0.99940800  0.46838700  0.14847400  1
  N  34  1  0.00377500  0.68643000  0.47605200  1
  N  35  1  0.97651300  0.62246500  0.45676300  1
  N  36  1  0.99934900  0.66659100  0.52080800  1
  N  46  1  0.00368000  0.20766800  0.69184000  1
  N  47  1  0.97630100  0.16299900  0.62787900  1
  N  48  1  0.99930800  0.14306700  0.67199300  1
  N  58  1  0.00366900  0.47065200  0.78152500  1
  N  59  1  0.97638100  0.45135900  0.82619700  1
  N  60  1  0.99934200  0.51540500  0.84612300  1
  N  70  1  0.00365900  0.29735400  0.51853400  1
  N  71  1  0.97644200  0.36132400  0.53783900  1
  N  72  1  0.99938800  0.31721100  0.47379000  1
  N  82  1  0.98918300  0.47027500  0.69246600  1
  N  83  1  0.98308300  0.45077900  0.62828600  1
  N  84  1  0.97886300  0.51488300  0.67229500  1
  N  94  1  0.98907200  0.29670800  0.78052100  1
  N  95  1  0.98297200  0.36089500  0.82518700  1
  N  96  1  0.97869600  0.31691000  0.84531100  1
  N  106  1  0.98950700  0.20866300  0.51890000  1
  N  107  1  0.98335200  0.16398900  0.53841000  1
  N  108  1  0.97874700  0.14388500  0.47430500  1
  N  118  1  0.98932500  0.51349000  0.30212900  1
  N  119  1  0.98321900  0.53299900  0.36631200  1
  N  120  1  0.97866600  0.46889400  0.32231100  1
  N  130  1  0.98919100  0.68706400  0.21408800  1
  N  131  1  0.98308800  0.62288300  0.16940300  1
  N  132  1  0.97886800  0.66689200  0.14930800  1
  N  142  1  0.98925900  0.77512500  0.47570400  1
  N  143  1  0.98304200  0.81979300  0.45618600  1
  N  144  1  0.97875600  0.83990900  0.52029200  1
  N  154  1  0.98030300  0.89093200  0.26879900  1
  N  155  1  0.98577400  0.93953800  0.25434300  1
  N  156  1  0.99539500  0.87645100  0.20516400  1
  N  166  1  0.98010600  0.36436300  0.09825600  1
  N  167  1  0.98561500  0.30130100  0.04965400  1
  N  168  1  0.99520000  0.31521200  0.11273900  1
  N  178  1  0.98017700  0.72038200  0.62482600  1
  N  179  1  0.98593600  0.73483800  0.68788600  1
  N  180  1  0.99522900  0.78401500  0.67397900  1
  N  190  1  0.98022200  0.09285000  0.72578200  1
  N  191  1  0.98573600  0.04423500  0.74022500  1
  N  192  1  0.99532900  0.10731600  0.78940800  1
  N  202  1  0.98031400  0.61942300  0.89633300  1
  N  203  1  0.98580400  0.68248600  0.94493800  1
  N  204  1  0.99541500  0.66857800  0.88185200  1
  N  214  1  0.98010100  0.26340200  0.36976500  1
  N  215  1  0.98562100  0.24893600  0.30670000  1
  N  216  1  0.99519300  0.19976500  0.32061600  1
  N  226  1  0.99207900  0.61907400  0.72550800  1
  N  227  1  0.99023000  0.68233400  0.74096100  1
  N  228  1  0.98928700  0.66766200  0.78959300  1
  N  238  1  0.99061500  0.26368300  0.89626500  1
  N  239  1  0.99020600  0.24822800  0.94406700  1
  N  240  1  0.98674300  0.19958300  0.88076800  1
  N  250  1  0.99126600  0.09293100  0.37011400  1
  N  251  1  0.99006900  0.04511900  0.30685500  1
  N  252  1  0.98780200  0.10841800  0.32151000  1
  N  262  1  0.99123000  0.36469800  0.26907300  1
  N  263  1  0.99022500  0.30144000  0.25361700  1
  N  264  1  0.98778500  0.31610400  0.20497800  1
  N  274  1  0.99206000  0.72010500  0.09833200  1
  N  275  1  0.99013900  0.73554900  0.05051700  1
  N  276  1  0.98922500  0.78418700  0.11382100  1
  N  286  1  0.99089700  0.89086100  0.62447200  1
  N  287  1  0.99011300  0.93867100  0.68772900  1
  N  288  1  0.98728900  0.87537200  0.67307800  1
