# generated using pymatgen
data_H12C14N
_symmetry_space_group_name_H-M   'P 1'
_cell_length_a   36.30720000
_cell_length_b   36.58090000
_cell_length_c   56.02950000
_cell_angle_alpha   90.00000000
_cell_angle_beta   90.00000000
_cell_angle_gamma   90.00000000
_symmetry_Int_Tables_number   1
_chemical_formula_structural   H12C14N
_chemical_formula_sum   'H768 C896 N64'
_cell_volume   74415.58336543
_cell_formula_units_Z   64
loop_
 _symmetry_equiv_pos_site_id
 _symmetry_equiv_pos_as_xyz
  1  'x, y, z'
loop_
 _atom_site_type_symbol
 _atom_site_label
 _atom_site_symmetry_multiplicity
 _atom_site_fract_x
 _atom_site_fract_y
 _atom_site_fract_z
 _atom_site_occupancy
  H  7  1  0.19644700  0.06993700  0.04293600  1
  H  8  1  0.28423300  0.00607800  0.06816900  1
  H  15  1  0.10920500  0.18105600  0.08734200  1
  H  16  1  0.13770500  0.07012800  0.08291800  1
  H  19  1  0.20615500  0.09664500  0.12488600  1
  H  20  1  0.24007000  0.07107900  0.13493800  1
  H  21  1  0.23818400  0.17925200  0.07931000  1
  H  22  1  0.24979100  0.13587400  0.07720100  1
  H  29  1  0.39336300  0.93202900  0.54296400  1
  H  30  1  0.30556700  0.99584900  0.56822900  1
  H  37  1  0.48070600  0.82097100  0.58738700  1
  H  38  1  0.45210900  0.93187600  0.58297000  1
  H  41  1  0.38367300  0.90525300  0.62490800  1
  H  42  1  0.34975400  0.93080400  0.63497100  1
  H  43  1  0.35173200  0.82266600  0.57929700  1
  H  44  1  0.34009000  0.86603600  0.57718500  1
  H  51  1  0.22663500  0.90156000  0.29311000  1
  H  52  1  0.29038900  0.98929600  0.31808400  1
  H  59  1  0.11576200  0.81421600  0.33851100  1
  H  60  1  0.22724300  0.84336500  0.33336900  1
  H  63  1  0.20010400  0.91123700  0.37512900  1
  H  64  1  0.22559100  0.94517800  0.38506300  1
  H  65  1  0.11643100  0.94213000  0.32961000  1
  H  66  1  0.16001500  0.95395300  0.32722200  1
  H  73  1  0.36317600  0.10045000  0.79314100  1
  H  74  1  0.29947200  0.01263300  0.81804600  1
  H  81  1  0.47403500  0.18773500  0.83861700  1
  H  82  1  0.36255900  0.15858500  0.83343400  1
  H  85  1  0.38968300  0.09065600  0.87515900  1
  H  86  1  0.36425600  0.05664500  0.88505700  1
  H  87  1  0.47338000  0.05983300  0.82964000  1
  H  88  1  0.42979900  0.04801300  0.82721400  1
  H  95  1  0.39126700  0.07222000  0.47052200  1
  H  96  1  0.30619300  0.00548500  0.44456400  1
  H  103  1  0.47983300  0.18222100  0.42648400  1
  H  104  1  0.45025800  0.07155300  0.43050400  1
  H  107  1  0.38168500  0.09915800  0.38852700  1
  H  108  1  0.34858400  0.07266100  0.37832200  1
  H  109  1  0.35073500  0.18151100  0.43409100  1
  H  110  1  0.33875400  0.13819600  0.43598600  1
  H  117  1  0.19843000  0.92976000  0.97047400  1
  H  118  1  0.28351400  0.99648100  0.94450400  1
  H  125  1  0.10987500  0.81973300  0.92644800  1
  H  126  1  0.13943700  0.93040200  0.93047600  1
  H  129  1  0.20803100  0.90277300  0.88848500  1
  H  130  1  0.24113300  0.92926500  0.87827700  1
  H  131  1  0.23897800  0.82046000  0.93403600  1
  H  132  1  0.25095300  0.86377800  0.93594100  1
  H  139  1  0.36661300  0.90418700  0.22006600  1
  H  140  1  0.29994300  0.98949900  0.19470600  1
  H  147  1  0.47574600  0.81526600  0.17506700  1
  H  148  1  0.36473500  0.84623300  0.17971800  1
  H  151  1  0.39344800  0.91450600  0.13806500  1
  H  152  1  0.36703700  0.94775000  0.12809600  1
  H  153  1  0.47701600  0.94330500  0.18354800  1
  H  154  1  0.43357000  0.95578400  0.18567700  1
  H  161  1  0.22320100  0.09784900  0.72005100  1
  H  162  1  0.28982400  0.01246600  0.69474800  1
  H  169  1  0.11405900  0.18669900  0.67497700  1
  H  170  1  0.22506900  0.15574300  0.67966300  1
  H  173  1  0.19638900  0.08743100  0.63805100  1
  H  174  1  0.22275400  0.05413000  0.62811400  1
  H  175  1  0.11279400  0.05867200  0.68354700  1
  H  176  1  0.15623700  0.04620500  0.68571200  1
  H  183  1  0.88680200  0.93117600  0.97190600  1
  H  184  1  0.79942300  0.99458600  0.94561400  1
  H  191  1  0.97499700  0.81958500  0.92865500  1
  H  192  1  0.94612600  0.93046800  0.93250500  1
  H  195  1  0.87843500  0.90309900  0.89009200  1
  H  196  1  0.84468100  0.92848300  0.87962900  1
  H  197  1  0.84585400  0.82112700  0.93561100  1
  H  198  1  0.83410700  0.86448600  0.93752900  1
  H  205  1  0.70292100  0.07077100  0.47186200  1
  H  206  1  0.79029500  0.00738300  0.44553800  1
  H  213  1  0.61470400  0.18238300  0.42865300  1
  H  214  1  0.64357800  0.07150100  0.43247800  1
  H  217  1  0.71127500  0.09891700  0.39005500  1
  H  218  1  0.74502600  0.07354000  0.37958000  1
  H  219  1  0.74385000  0.18084400  0.43557900  1
  H  220  1  0.75559700  0.13748400  0.43749300  1
  H  227  1  0.86482300  0.09901900  0.72160600  1
  H  228  1  0.80182700  0.01096000  0.69630600  1
  H  235  1  0.97622800  0.18616600  0.67478900  1
  H  236  1  0.86515300  0.15672200  0.68224900  1
  H  239  1  0.89353300  0.08848800  0.63992400  1
  H  240  1  0.86838400  0.05440000  0.62988200  1
  H  241  1  0.97644800  0.05834700  0.68395900  1
  H  242  1  0.93306000  0.04639300  0.68740000  1
  H  249  1  0.72496900  0.90285300  0.22158000  1
  H  250  1  0.78790700  0.99101000  0.19637300  1
  H  257  1  0.61360600  0.81576300  0.17465400  1
  H  258  1  0.72465800  0.84523500  0.18219500  1
  H  261  1  0.69627500  0.91355500  0.13990200  1
  H  262  1  0.72135800  0.94772600  0.12990900  1
  H  263  1  0.61332500  0.94356800  0.18390700  1
  H  264  1  0.65670200  0.95553000  0.18739900  1
  H  271  1  0.70504500  0.92878400  0.54246600  1
  H  272  1  0.78966200  0.99504000  0.56955200  1
  H  279  1  0.61538500  0.81838500  0.58533600  1
  H  280  1  0.64554100  0.92894300  0.58190100  1
  H  283  1  0.71340700  0.90016800  0.62427500  1
  H  284  1  0.74632900  0.92647400  0.63491600  1
  H  285  1  0.74463500  0.81857900  0.57874000  1
  H  286  1  0.75683100  0.86185300  0.57704100  1
  H  293  1  0.88478600  0.07314400  0.04250700  1
  H  294  1  0.80017700  0.00691600  0.06964100  1
  H  301  1  0.97447100  0.18357900  0.08532000  1
  H  302  1  0.94433100  0.07301700  0.08190400  1
  H  305  1  0.87648200  0.10182300  0.12431000  1
  H  306  1  0.84356800  0.07552600  0.13497000  1
  H  307  1  0.84521500  0.18336500  0.07878500  1
  H  308  1  0.83302200  0.14008900  0.07709100  1
  H  315  1  0.72161400  0.09666000  0.79298000  1
  H  316  1  0.78741400  0.01104500  0.81885800  1
  H  323  1  0.61174100  0.18540100  0.83925200  1
  H  324  1  0.72241900  0.15429200  0.83235600  1
  H  327  1  0.69250200  0.08575700  0.87465300  1
  H  328  1  0.71852400  0.05234900  0.88478600  1
  H  329  1  0.60980700  0.05743900  0.83065700  1
  H  330  1  0.65309400  0.04488200  0.82751600  1
  H  337  1  0.86820200  0.90520600  0.29302100  1
  H  338  1  0.80242800  0.99089300  0.31881400  1
  H  345  1  0.97804300  0.81653200  0.33938200  1
  H  346  1  0.86738200  0.84765700  0.33242500  1
  H  349  1  0.89726800  0.91625800  0.37469000  1
  H  350  1  0.87128400  0.94972400  0.38478100  1
  H  351  1  0.98001500  0.94448100  0.33071300  1
  H  352  1  0.93674000  0.95704200  0.32752900  1
  H  359  1  0.70166000  0.57143400  0.54215900  1
  H  360  1  0.78924300  0.50781900  0.56795400  1
  H  367  1  0.61482300  0.68348700  0.58719600  1
  H  368  1  0.64290000  0.57266400  0.58095500  1
  H  371  1  0.71123400  0.59950300  0.62392800  1
  H  372  1  0.74507500  0.57405800  0.63418600  1
  H  373  1  0.74388800  0.68146400  0.57984600  1
  H  374  1  0.75532900  0.63815200  0.57691900  1
  H  381  1  0.88822300  0.43056800  0.04218400  1
  H  382  1  0.80067000  0.49419700  0.06801000  1
  H  389  1  0.97501300  0.31843600  0.08718700  1
  H  390  1  0.94700500  0.42928100  0.08096700  1
  H  393  1  0.87866000  0.40244200  0.12394700  1
  H  394  1  0.84483000  0.42789200  0.13421600  1
  H  395  1  0.84594500  0.32054700  0.07985300  1
  H  396  1  0.83453100  0.36386700  0.07693400  1
  H  403  1  0.72504300  0.40511500  0.79201700  1
  H  404  1  0.78826800  0.49263100  0.81787100  1
  H  411  1  0.61225600  0.31833800  0.83603800  1
  H  412  1  0.72395300  0.34675400  0.83120900  1
  H  415  1  0.69630800  0.41450300  0.87372900  1
  H  416  1  0.72156500  0.44834800  0.88401600  1
  H  417  1  0.61391400  0.44646500  0.82875600  1
  H  418  1  0.65756900  0.45801700  0.82636800  1
  H  425  1  0.86477300  0.59691700  0.29204100  1
  H  426  1  0.80161000  0.50930900  0.31782500  1
  H  433  1  0.97755300  0.68363500  0.33614100  1
  H  434  1  0.86586100  0.65521800  0.33126500  1
  H  437  1  0.89349200  0.58740700  0.37375100  1
  H  438  1  0.86830200  0.55348200  0.38400100  1
  H  439  1  0.97590600  0.55551600  0.32878400  1
  H  440  1  0.93225600  0.54396600  0.32635800  1
  H  447  1  0.88613500  0.57370600  0.97135600  1
  H  448  1  0.80151300  0.50710600  0.94463300  1
  H  455  1  0.97420300  0.68493600  0.92690600  1
  H  456  1  0.94521200  0.57429100  0.93257500  1
  H  459  1  0.87674600  0.60233000  0.88958000  1
  H  460  1  0.84380500  0.57591500  0.87909800  1
  H  461  1  0.84500600  0.68377100  0.93369700  1
  H  462  1  0.83325100  0.64048400  0.93633300  1
  H  469  1  0.70367000  0.42830500  0.47134600  1
  H  470  1  0.78827300  0.49488600  0.44457100  1
  H  477  1  0.61556100  0.31705000  0.42693000  1
  H  478  1  0.64456400  0.42769500  0.43257900  1
  H  481  1  0.71301300  0.39959900  0.38957900  1
  H  482  1  0.74594300  0.42600900  0.37907500  1
  H  483  1  0.74476400  0.31820900  0.43370700  1
  H  484  1  0.75652200  0.36150000  0.43633400  1
  H  491  1  0.86812300  0.40747400  0.72113600  1
  H  492  1  0.80221500  0.49262800  0.69473200  1
  H  499  1  0.97926300  0.31898000  0.67768200  1
  H  500  1  0.86802600  0.34926100  0.68189300  1
  H  503  1  0.89746700  0.41739800  0.63947200  1
  H  504  1  0.87139200  0.45060300  0.62910200  1
  H  505  1  0.97958800  0.44724600  0.68446600  1
  H  506  1  0.93606800  0.45947100  0.68653100  1
  H  513  1  0.72168600  0.59456100  0.22111600  1
  H  514  1  0.78757900  0.50936100  0.19476300  1
  H  521  1  0.61054000  0.68298700  0.17760200  1
  H  522  1  0.72177700  0.65272500  0.18183800  1
  H  525  1  0.69238600  0.58455000  0.13945000  1
  H  526  1  0.71842800  0.55129800  0.12911000  1
  H  527  1  0.61022900  0.55472900  0.18445300  1
  H  528  1  0.65374900  0.54251500  0.18654800  1
  H  535  1  0.39327500  0.42959500  0.47204600  1
  H  536  1  0.30583700  0.49325100  0.44612400  1
  H  543  1  0.48030700  0.31720300  0.42830500  1
  H  544  1  0.45158800  0.42791700  0.43403200  1
  H  547  1  0.38275300  0.40018100  0.39051000  1
  H  548  1  0.34895300  0.42564200  0.38021800  1
  H  549  1  0.35103000  0.31872900  0.43391400  1
  H  550  1  0.33933500  0.36198900  0.43672000  1
  H  557  1  0.19650200  0.57233900  0.97199500  1
  H  558  1  0.28391600  0.50867700  0.94604300  1
  H  565  1  0.10947100  0.68476400  0.92828400  1
  H  566  1  0.13816600  0.57404500  0.93399200  1
  H  569  1  0.20699500  0.60179400  0.89046100  1
  H  570  1  0.24078400  0.57633000  0.88015800  1
  H  571  1  0.23875100  0.68320500  0.93386900  1
  H  572  1  0.25043600  0.63994000  0.93666500  1
  H  579  1  0.36300000  0.59495700  0.22078000  1
  H  580  1  0.29927100  0.50731300  0.19563400  1
  H  587  1  0.47387600  0.68246200  0.17530300  1
  H  588  1  0.36245200  0.65360300  0.18139600  1
  H  591  1  0.38909100  0.58606500  0.13868100  1
  H  592  1  0.36361100  0.55218600  0.12866200  1
  H  593  1  0.47301100  0.55440600  0.18286800  1
  H  594  1  0.42947700  0.54264000  0.18574000  1
  H  601  1  0.22679100  0.40689500  0.72071900  1
  H  602  1  0.29046300  0.49465100  0.69568000  1
  H  609  1  0.11594900  0.31947000  0.67513400  1
  H  610  1  0.22735700  0.34835100  0.68130400  1
  H  613  1  0.20071600  0.41599800  0.63862600  1
  H  614  1  0.22613100  0.44995600  0.62866000  1
  H  615  1  0.11676400  0.44751200  0.68279700  1
  H  616  1  0.16028800  0.45928300  0.68572300  1
  H  623  1  0.19851000  0.42734800  0.04225400  1
  H  624  1  0.28334000  0.49371300  0.06891600  1
  H  631  1  0.11016300  0.31610400  0.08574300  1
  H  632  1  0.14003600  0.42654700  0.08043300  1
  H  635  1  0.20909500  0.39752900  0.12380300  1
  H  636  1  0.24213800  0.42385500  0.13424400  1
  H  637  1  0.23952400  0.31642700  0.08031800  1
  H  638  1  0.25161600  0.35963000  0.07774200  1
  H  645  1  0.39133800  0.57460200  0.54228900  1
  H  646  1  0.30650700  0.50827300  0.56899100  1
  H  653  1  0.47977800  0.68581300  0.58572900  1
  H  654  1  0.44981400  0.57539000  0.58046400  1
  H  657  1  0.38075900  0.60452200  0.62382500  1
  H  658  1  0.34771900  0.57820800  0.63428000  1
  H  659  1  0.35041500  0.68558900  0.58031700  1
  H  660  1  0.33828800  0.64239200  0.57776200  1
  H  667  1  0.22334800  0.59231700  0.29374900  1
  H  668  1  0.29010200  0.50721800  0.31932800  1
  H  675  1  0.11404900  0.68129700  0.33878000  1
  H  676  1  0.22506600  0.65080100  0.33314800  1
  H  679  1  0.19693100  0.58285000  0.37584300  1
  H  680  1  0.22335900  0.54969600  0.38590400  1
  H  681  1  0.11318900  0.55310200  0.33177500  1
  H  682  1  0.15661200  0.54075400  0.32914800  1
  H  689  1  0.36647800  0.40951600  0.79376400  1
  H  690  1  0.29973700  0.49467800  0.81926500  1
  H  697  1  0.47575700  0.32062000  0.83891700  1
  H  698  1  0.36475400  0.35111700  0.83320200  1
  H  701  1  0.39285900  0.41914200  0.87585800  1
  H  702  1  0.36646200  0.45234500  0.88587800  1
  H  703  1  0.47664100  0.44880200  0.83179400  1
  H  704  1  0.43322500  0.46114400  0.82911300  1
  H  710  1  0.16781800  0.28247500  0.04669700  1
  H  712  1  0.17943600  0.21387400  0.12031600  1
  H  714  1  0.18279500  0.31418800  0.12885800  1
  H  715  1  0.20734300  0.27526100  0.13819900  1
  H  716  1  0.15862200  0.27647200  0.14067200  1
  H  718  1  0.16624600  0.18232500  0.03786600  1
  H  719  1  0.18759900  0.22096900  0.02532500  1
  H  720  1  0.13922900  0.22048700  0.02989400  1
  H  726  1  0.42218900  0.71951700  0.54669600  1
  H  728  1  0.41040900  0.78806900  0.62032100  1
  H  730  1  0.40707100  0.68775100  0.62884200  1
  H  731  1  0.38246700  0.72666000  0.63815700  1
  H  732  1  0.43118200  0.72548200  0.64068700  1
  H  734  1  0.42374800  0.81967300  0.53789000  1
  H  735  1  0.40241600  0.78103200  0.52533000  1
  H  736  1  0.45078100  0.78151900  0.52992300  1
  H  742  1  0.01231100  0.87217000  0.29832500  1
  H  744  1  0.08287700  0.88463000  0.37130800  1
  H  746  1  0.98197000  0.88920300  0.38055000  1
  H  747  1  0.02163400  0.91332000  0.38936800  1
  H  748  1  0.01987500  0.86504600  0.39235000  1
  H  750  1  0.11302600  0.86935700  0.28874400  1
  H  751  1  0.07410500  0.89076400  0.27633500  1
  H  752  1  0.07413700  0.84284000  0.28127500  1
  H  758  1  0.57739500  0.12972300  0.79827100  1
  H  760  1  0.50703400  0.11738700  0.87134500  1
  H  762  1  0.60796500  0.11277600  0.88046600  1
  H  763  1  0.56830900  0.08870700  0.88935600  1
  H  764  1  0.57011300  0.13698600  0.89229600  1
  H  766  1  0.47665200  0.13260500  0.78881300  1
  H  767  1  0.51551200  0.11114100  0.77636600  1
  H  768  1  0.51555100  0.15907100  0.78128300  1
  H  774  1  0.42217000  0.28385300  0.46730400  1
  H  776  1  0.41000100  0.21598200  0.39343200  1
  H  778  1  0.40780100  0.31640000  0.38523300  1
  H  779  1  0.38281900  0.27783600  0.37573800  1
  H  780  1  0.43155600  0.27850600  0.37330700  1
  H  782  1  0.42250000  0.18362100  0.47579400  1
  H  783  1  0.40159200  0.22242500  0.48843600  1
  H  784  1  0.44996900  0.22138400  0.48393100  1
  H  790  1  0.16759700  0.71811400  0.96726200  1
  H  792  1  0.17973500  0.78596700  0.89338500  1
  H  794  1  0.18200900  0.68554800  0.88520000  1
  H  795  1  0.20695800  0.72413100  0.87570100  1
  H  796  1  0.15822200  0.72342000  0.87327000  1
  H  798  1  0.16719300  0.81834400  0.97574100  1
  H  799  1  0.18813600  0.77955900  0.98838600  1
  H  800  1  0.13975900  0.78055900  0.98388200  1
  H  806  1  0.57954300  0.87188800  0.21574300  1
  H  808  1  0.51029300  0.88513300  0.14229000  1
  H  810  1  0.61139900  0.88838100  0.13371600  1
  H  811  1  0.57218400  0.91296200  0.12460700  1
  H  812  1  0.57338500  0.86466100  0.12168300  1
  H  814  1  0.47866000  0.87049100  0.22467400  1
  H  815  1  0.51768200  0.89140100  0.23730700  1
  H  816  1  0.51706000  0.84346600  0.23242600  1
  H  822  1  0.01034700  0.13001400  0.71580300  1
  H  824  1  0.07942000  0.11687600  0.64227100  1
  H  826  1  0.97829600  0.11357300  0.63380400  1
  H  827  1  0.01750800  0.08904400  0.62463300  1
  H  828  1  0.01625700  0.13734700  0.62174600  1
  H  830  1  0.11125400  0.13150000  0.72462200  1
  H  831  1  0.07229300  0.11052900  0.73729200  1
  H  832  1  0.07284000  0.15846800  0.73242700  1
  H  838  1  0.91632000  0.71700400  0.96730600  1
  H  840  1  0.90477400  0.78778700  0.89456800  1
  H  842  1  0.90164800  0.68773500  0.88474100  1
  H  843  1  0.87712900  0.72691400  0.87583300  1
  H  844  1  0.92586300  0.72580100  0.87344500  1
  H  846  1  0.91750400  0.81689800  0.97741400  1
  H  847  1  0.89634000  0.77777900  0.98945400  1
  H  848  1  0.94471600  0.77864600  0.98493300  1
  H  854  1  0.67342000  0.28495200  0.46730700  1
  H  856  1  0.68495800  0.21420900  0.39455600  1
  H  858  1  0.68815500  0.31426500  0.38475800  1
  H  859  1  0.71264900  0.27507200  0.37584300  1
  H  860  1  0.66391800  0.27622000  0.37344800  1
  H  862  1  0.67216700  0.18505700  0.47739000  1
  H  863  1  0.69335800  0.22415300  0.48944000  1
  H  864  1  0.64498200  0.22332300  0.48491400  1
  H  870  1  0.67286900  0.71534200  0.54662500  1
  H  872  1  0.68533500  0.78562800  0.61950600  1
  H  874  1  0.68737100  0.68548800  0.62911000  1
  H  875  1  0.71235700  0.72434700  0.63807600  1
  H  876  1  0.66362000  0.72376500  0.64052000  1
  H  878  1  0.67285800  0.81529100  0.53673000  1
  H  879  1  0.69350400  0.77597200  0.52459300  1
  H  880  1  0.64514700  0.77741800  0.52915200  1
  H  886  1  0.91695000  0.28660500  0.04663300  1
  H  888  1  0.90450900  0.21634200  0.11952100  1
  H  890  1  0.90244100  0.31648200  0.12911000  1
  H  891  1  0.87747300  0.27761700  0.13808500  1
  H  892  1  0.92621000  0.27822100  0.14052400  1
  H  894  1  0.91698300  0.18666000  0.03674700  1
  H  895  1  0.89632400  0.22597100  0.02461100  1
  H  896  1  0.94467800  0.22453800  0.02916500  1
  H  902  1  0.50827100  0.37800800  0.79813700  1
  H  904  1  0.58108900  0.38771600  0.87036500  1
  H  906  1  0.48051100  0.39197500  0.88099100  1
  H  907  1  0.52048600  0.41565600  0.88971200  1
  H  908  1  0.51872400  0.36728100  0.89188400  1
  H  910  1  0.60870000  0.37568200  0.78722300  1
  H  911  1  0.56938800  0.39747700  0.77564100  1
  H  912  1  0.56962300  0.34938400  0.77982100  1
  H  918  1  0.08145500  0.62386000  0.29808400  1
  H  920  1  0.00882400  0.61433100  0.37040100  1
  H  922  1  0.10942600  0.61000900  0.38091700  1
  H  923  1  0.06944800  0.58639300  0.38970900  1
  H  924  1  0.07127100  0.63477000  0.39182900  1
  H  926  1  0.98100100  0.62628500  0.28728400  1
  H  927  1  0.02024600  0.60441300  0.27567300  1
  H  928  1  0.02009700  0.65251500  0.27982000  1
  H  934  1  0.08372600  0.37711700  0.71596200  1
  H  936  1  0.01204000  0.38803500  0.64333100  1
  H  938  1  0.11281400  0.39100100  0.63329300  1
  H  939  1  0.07327500  0.41522400  0.62437500  1
  H  940  1  0.07443400  0.36683900  0.62214200  1
  H  942  1  0.98313000  0.37619600  0.72629900  1
  H  943  1  0.02260200  0.39738200  0.73812700  1
  H  944  1  0.02171200  0.34930800  0.73389400  1
  H  950  1  0.50618300  0.62476500  0.21604900  1
  H  952  1  0.57765400  0.61399700  0.14331900  1
  H  954  1  0.47685300  0.61098200  0.13340800  1
  H  955  1  0.51638500  0.58681400  0.12441600  1
  H  956  1  0.51517600  0.63520500  0.12223000  1
  H  958  1  0.60680800  0.62576600  0.22625600  1
  H  959  1  0.56740000  0.60451700  0.23812300  1
  H  960  1  0.56822100  0.65259900  0.23391400  1
  H  966  1  0.07694800  0.11372900  0.04884400  1
  H  968  1  0.00580400  0.12151100  0.12184800  1
  H  970  1  0.10652900  0.11797000  0.13183100  1
  H  971  1  0.06621200  0.09799100  0.14334600  1
  H  972  1  0.06927700  0.14618900  0.14027200  1
  H  974  1  0.98536600  0.09267600  0.03770200  1
  H  975  1  0.02445200  0.11263100  0.02432100  1
  H  976  1  0.98997200  0.14098700  0.03654100  1
  H  982  1  0.51288700  0.88835300  0.54891600  1
  H  984  1  0.58409300  0.88037400  0.62188100  1
  H  986  1  0.48337800  0.88397100  0.63189600  1
  H  987  1  0.52372500  0.90386700  0.64342900  1
  H  988  1  0.52060200  0.85568300  0.64029100  1
  H  990  1  0.60446100  0.90935300  0.53774200  1
  H  991  1  0.56534800  0.88943600  0.52437000  1
  H  992  1  0.59982600  0.86104700  0.53655800  1
  H  998  1  0.18184500  0.78182200  0.29987600  1
  H  1000  1  0.17852500  0.71298000  0.37373300  1
  H  1002  1  0.18178400  0.81323200  0.38256800  1
  H  1003  1  0.20301200  0.77373300  0.39402100  1
  H  1004  1  0.15427800  0.77618000  0.39207600  1
  H  1006  1  0.20314400  0.69083500  0.28918000  1
  H  1007  1  0.18207800  0.72918600  0.27588300  1
  H  1008  1  0.15440700  0.69509100  0.28907400  1
  H  1014  1  0.40800700  0.22011500  0.79997700  1
  H  1016  1  0.41126300  0.28894600  0.87385400  1
  H  1018  1  0.40797100  0.18868300  0.88267200  1
  H  1019  1  0.38675000  0.22818400  0.89412900  1
  H  1020  1  0.43548700  0.22571800  0.89219800  1
  H  1022  1  0.38673300  0.31111300  0.78927900  1
  H  1023  1  0.40782500  0.27276900  0.77598900  1
  H  1024  1  0.43547300  0.30686500  0.78920400  1
  H  1030  1  0.51106700  0.11463000  0.46494100  1
  H  1032  1  0.58297500  0.12063500  0.39218400  1
  H  1034  1  0.48228400  0.11913700  0.38184000  1
  H  1035  1  0.52223200  0.09817300  0.37053000  1
  H  1036  1  0.52024100  0.14644800  0.37345500  1
  H  1038  1  0.60211200  0.09187000  0.47647000  1
  H  1039  1  0.56331200  0.11265600  0.48966000  1
  H  1040  1  0.59845200  0.14026700  0.47750400  1
  H  1046  1  0.07866000  0.88731700  0.96492400  1
  H  1048  1  0.00670300  0.88133600  0.89218700  1
  H  1050  1  0.10738800  0.88281800  0.88181400  1
  H  1051  1  0.06743700  0.90379300  0.87051800  1
  H  1052  1  0.06942000  0.85551900  0.87343600  1
  H  1054  1  0.98762500  0.91009100  0.97648000  1
  H  1055  1  0.02643100  0.88929400  0.98965700  1
  H  1056  1  0.99127700  0.86169200  0.97750800  1
  H  1062  1  0.40875600  0.78462200  0.21367800  1
  H  1064  1  0.41026300  0.71450600  0.14031600  1
  H  1066  1  0.41015300  0.81465400  0.13076900  1
  H  1067  1  0.38762300  0.77568500  0.11958400  1
  H  1068  1  0.43640900  0.77656800  0.12153500  1
  H  1070  1  0.38474700  0.69447400  0.22498300  1
  H  1071  1  0.40689200  0.73242000  0.23803900  1
  H  1072  1  0.43358900  0.69732500  0.22512600  1
  H  1078  1  0.18098000  0.21737000  0.71358100  1
  H  1080  1  0.17959600  0.28741700  0.64017300  1
  H  1082  1  0.17969800  0.18724800  0.63067700  1
  H  1083  1  0.20224900  0.22619800  0.61948300  1
  H  1084  1  0.15345900  0.22532600  0.62140800  1
  H  1086  1  0.20499300  0.30753200  0.72486100  1
  H  1087  1  0.18280700  0.26960900  0.73791800  1
  H  1088  1  0.15615100  0.30470200  0.72496800  1
  H  1094  1  0.90907300  0.21777500  0.71493600  1
  H  1096  1  0.91578800  0.28787400  0.64168200  1
  H  1098  1  0.91135900  0.18784700  0.63203100  1
  H  1099  1  0.89139300  0.22795100  0.62053200  1
  H  1100  1  0.93997900  0.22450800  0.62325700  1
  H  1102  1  0.88860300  0.30886600  0.72602100  1
  H  1103  1  0.90869300  0.27000700  0.73932500  1
  H  1104  1  0.93726300  0.30394800  0.72677600  1
  H  1110  1  0.68066700  0.78421200  0.21484200  1
  H  1112  1  0.67407800  0.71407100  0.14158600  1
  H  1114  1  0.67856500  0.81410100  0.13192200  1
  H  1115  1  0.69853100  0.77398500  0.12044100  1
  H  1116  1  0.64994300  0.77745700  0.12313000  1
  H  1118  1  0.70108100  0.69310900  0.22596300  1
  H  1119  1  0.68097000  0.73197900  0.23924200  1
  H  1120  1  0.65242200  0.69804100  0.22667000  1
  H  1126  1  0.67938600  0.21537600  0.79913600  1
  H  1128  1  0.67517500  0.28672000  0.87195000  1
  H  1130  1  0.67653200  0.18675400  0.88223700  1
  H  1131  1  0.69794100  0.22634300  0.89340800  1
  H  1132  1  0.64924600  0.22447200  0.89086600  1
  H  1134  1  0.70242300  0.30566700  0.78740800  1
  H  1135  1  0.68111800  0.26720400  0.77441000  1
  H  1136  1  0.65363600  0.30214100  0.78681400  1
  H  1142  1  0.91050500  0.78660100  0.29923500  1
  H  1144  1  0.91456000  0.71522200  0.37205400  1
  H  1146  1  0.91315800  0.81519500  0.38235000  1
  H  1147  1  0.89173800  0.77559800  0.39350200  1
  H  1148  1  0.94043900  0.77748400  0.39100300  1
  H  1150  1  0.88751000  0.69630000  0.28747400  1
  H  1151  1  0.90884700  0.73477100  0.27450000  1
  H  1152  1  0.93629900  0.69983400  0.28693100  1
  H  1158  1  0.58211900  0.62616200  0.54709900  1
  H  1160  1  0.51125400  0.61411200  0.61995700  1
  H  1162  1  0.61209600  0.60987500  0.62942600  1
  H  1163  1  0.57241500  0.58602100  0.63850500  1
  H  1164  1  0.57411500  0.63437900  0.64084500  1
  H  1166  1  0.48154900  0.62887400  0.53727400  1
  H  1167  1  0.52076400  0.60817700  0.52477400  1
  H  1168  1  0.52026600  0.65596700  0.53024000  1
  H  1174  1  0.00776300  0.37565200  0.04710600  1
  H  1176  1  0.07863900  0.38786600  0.11994300  1
  H  1178  1  0.97779800  0.39211400  0.12941300  1
  H  1179  1  0.01747700  0.41599500  0.13846700  1
  H  1180  1  0.01578400  0.36764200  0.14085200  1
  H  1182  1  0.10832700  0.37291500  0.03727200  1
  H  1183  1  0.06910600  0.39357900  0.02475800  1
  H  1184  1  0.06961100  0.34580600  0.03026900  1
  H  1190  1  0.00621200  0.62781600  0.96682300  1
  H  1192  1  0.07735900  0.61293900  0.89430600  1
  H  1194  1  0.97652800  0.61081500  0.88450200  1
  H  1195  1  0.01565500  0.58576100  0.87579400  1
  H  1196  1  0.01522600  0.63409200  0.87301900  1
  H  1198  1  0.10674000  0.62844500  0.97697300  1
  H  1199  1  0.06691900  0.60897000  0.98950200  1
  H  1200  1  0.06865300  0.65662100  0.98364200  1
  H  1206  1  0.58355600  0.37419200  0.46683600  1
  H  1208  1  0.51239700  0.38900000  0.39432300  1
  H  1210  1  0.61322800  0.39113500  0.38451500  1
  H  1211  1  0.57409000  0.41617000  0.37579800  1
  H  1212  1  0.57453300  0.36783600  0.37304500  1
  H  1214  1  0.48303600  0.37354400  0.47699700  1
  H  1215  1  0.52285500  0.39303500  0.48951700  1
  H  1216  1  0.52113100  0.34538200  0.48366800  1
  H  1222  1  0.24349100  0.03499900  0.96979100  1
  H  1224  1  0.24518700  0.96598100  0.04324300  1
  H  1226  1  0.25986900  0.90868100  0.99036600  1
  H  1227  1  0.22791300  0.90843200  0.01425600  1
  H  1228  1  0.27563700  0.91490000  0.01958600  1
  H  1230  1  0.25647800  0.09283100  0.02260500  1
  H  1231  1  0.22417300  0.09186300  0.99891500  1
  H  1232  1  0.27203000  0.08723500  0.99328700  1
  H  1238  1  0.34622300  0.96699500  0.46983800  1
  H  1240  1  0.34460100  0.03598000  0.54330300  1
  H  1242  1  0.32984600  0.09330200  0.49044200  1
  H  1243  1  0.36182400  0.09354400  0.51432200  1
  H  1244  1  0.31410600  0.08706700  0.51966900  1
  H  1246  1  0.33333333  0.90913400  0.52264800  1
  H  1247  1  0.36560800  0.91012700  0.49894200  1
  H  1248  1  0.31774100  0.91473600  0.49334000  1
  H  1254  1  0.26100800  0.94918300  0.21984700  1
  H  1256  1  0.33098100  0.95030100  0.29314600  1
  H  1258  1  0.38843500  0.96506300  0.24014700  1
  H  1259  1  0.38874700  0.93328400  0.26399500  1
  H  1260  1  0.38235900  0.98064400  0.26940300  1
  H  1262  1  0.20298800  0.96113400  0.27288800  1
  H  1263  1  0.20399500  0.92941300  0.24900800  1
  H  1264  1  0.20837600  0.97701100  0.24365000  1
  H  1270  1  0.32878000  0.05285600  0.71984000  1
  H  1272  1  0.25885900  0.05171000  0.79315900  1
  H  1274  1  0.20136100  0.03700500  0.74017300  1
  H  1275  1  0.20108100  0.06877000  0.76403000  1
  H  1276  1  0.20745100  0.02140200  0.76942500  1
  H  1278  1  0.38684300  0.04091800  0.77286600  1
  H  1279  1  0.38580800  0.07263800  0.74898600  1
  H  1280  1  0.38143900  0.02503800  0.74362800  1
  H  1286  1  0.83966800  0.96789500  0.04450000  1
  H  1288  1  0.83789400  0.03514000  0.97036200  1
  H  1290  1  0.82312600  0.09367400  0.02264700  1
  H  1291  1  0.85503100  0.09339200  0.99872600  1
  H  1292  1  0.80730800  0.08673000  0.99350500  1
  H  1294  1  0.82667600  0.90880100  0.99228400  1
  H  1295  1  0.85895100  0.91035100  0.01598100  1
  H  1296  1  0.81108400  0.91509100  0.02153400  1
  H  1302  1  0.75014900  0.03402700  0.54443500  1
  H  1304  1  0.75183200  0.96679800  0.47029000  1
  H  1306  1  0.76667200  0.90825200  0.52256000  1
  H  1307  1  0.73474400  0.90853900  0.49865200  1
  H  1308  1  0.78246200  0.91520900  0.49341300  1
  H  1310  1  0.76306300  0.09313400  0.49221700  1
  H  1311  1  0.73081600  0.09157500  0.51593000  1
  H  1312  1  0.77868800  0.08684100  0.52145900  1
  H  1318  1  0.82726800  0.05192900  0.79467400  1
  H  1320  1  0.76035300  0.05068000  0.72019600  1
  H  1322  1  0.70069600  0.03613300  0.77217900  1
  H  1323  1  0.70142000  0.06787700  0.74831600  1
  H  1324  1  0.70798400  0.02050100  0.74305100  1
  H  1326  1  0.88746900  0.03983500  0.74268400  1
  H  1327  1  0.88547400  0.07163200  0.76649100  1
  H  1328  1  0.88084200  0.02405400  0.77183600  1
  H  1334  1  0.76256500  0.94990200  0.29469700  1
  H  1336  1  0.82940600  0.95118400  0.22018900  1
  H  1338  1  0.88912100  0.96568000  0.27215300  1
  H  1339  1  0.88835800  0.93395100  0.24828300  1
  H  1340  1  0.88180900  0.98133100  0.24303300  1
  H  1342  1  0.70230400  0.96197100  0.24273300  1
  H  1343  1  0.70434000  0.93017300  0.26653600  1
  H  1344  1  0.70895300  0.97775200  0.27188400  1
  H  1350  1  0.74814100  0.53386800  0.46931200  1
  H  1352  1  0.75011300  0.46722400  0.54367600  1
  H  1354  1  0.76499700  0.40828600  0.49161800  1
  H  1355  1  0.73298400  0.40870200  0.51548000  1
  H  1356  1  0.78067200  0.41550300  0.52075800  1
  H  1358  1  0.76134800  0.59339400  0.52127500  1
  H  1359  1  0.72887500  0.59165200  0.49769700  1
  H  1360  1  0.77669400  0.58685500  0.49199800  1
  H  1366  1  0.84165400  0.46815600  0.96935500  1
  H  1368  1  0.83979500  0.53480600  0.04371900  1
  H  1370  1  0.82485000  0.59374400  0.99167000  1
  H  1371  1  0.85688500  0.59332500  0.01551700  1
  H  1372  1  0.80920300  0.58652700  0.02081700  1
  H  1374  1  0.82851100  0.40863600  0.02132800  1
  H  1375  1  0.86095600  0.41036900  0.99773500  1
  H  1376  1  0.81313300  0.41517800  0.99205900  1
  H  1382  1  0.76242400  0.45236700  0.71924800  1
  H  1384  1  0.82959800  0.45354500  0.79362800  1
  H  1386  1  0.88904700  0.46826600  0.74156600  1
  H  1387  1  0.88845500  0.43647300  0.76540900  1
  H  1388  1  0.88186600  0.48383400  0.77072100  1
  H  1390  1  0.70243100  0.46457000  0.77132800  1
  H  1391  1  0.70428200  0.43275800  0.74751900  1
  H  1392  1  0.70895600  0.48032900  0.74215900  1
  H  1398  1  0.82737600  0.54969900  0.21923400  1
  H  1400  1  0.76025100  0.54847100  0.29363600  1
  H  1402  1  0.70076200  0.53379700  0.24158900  1
  H  1403  1  0.70138200  0.56557300  0.26543900  1
  H  1404  1  0.70796400  0.51820700  0.27073400  1
  H  1406  1  0.88741300  0.53751200  0.27129500  1
  H  1407  1  0.88552400  0.56932600  0.24749100  1
  H  1408  1  0.88087500  0.52175500  0.24212800  1
  H  1414  1  0.34709900  0.46896300  0.54482900  1
  H  1416  1  0.34548500  0.53407600  0.46989900  1
  H  1418  1  0.33053500  0.59412100  0.52138800  1
  H  1419  1  0.36274900  0.59313400  0.49765000  1
  H  1420  1  0.31508900  0.58633800  0.49226200  1
  H  1422  1  0.33385900  0.40839600  0.49340800  1
  H  1423  1  0.36640100  0.41056600  0.51692900  1
  H  1424  1  0.31860600  0.41558000  0.52263500  1
  H  1430  1  0.24275200  0.53298000  0.04475800  1
  H  1432  1  0.24427900  0.46784200  0.96983500  1
  H  1434  1  0.25928400  0.40781300  0.02132700  1
  H  1435  1  0.22705000  0.40879500  0.99760100  1
  H  1436  1  0.27470500  0.41558800  0.99219500  1
  H  1438  1  0.25594400  0.59352800  0.99332300  1
  H  1439  1  0.22342100  0.59137100  0.01685600  1
  H  1440  1  0.27121900  0.58635400  0.02254600  1
  H  1446  1  0.32897300  0.54723600  0.29395800  1
  H  1448  1  0.25869700  0.54598400  0.22078400  1
  H  1450  1  0.20149700  0.53123300  0.27390600  1
  H  1451  1  0.20103400  0.56293200  0.25001100  1
  H  1452  1  0.20746500  0.51556100  0.24465900  1
  H  1454  1  0.38675800  0.53524000  0.24080700  1
  H  1455  1  0.38586300  0.56694800  0.26469800  1
  H  1456  1  0.38150000  0.51934700  0.27005200  1
  H  1462  1  0.26085700  0.45455100  0.79395700  1
  H  1464  1  0.33106700  0.45586300  0.72075400  1
  H  1466  1  0.38832200  0.47055400  0.77385800  1
  H  1467  1  0.38874900  0.43886800  0.74995700  1
  H  1468  1  0.38232900  0.48624500  0.74461700  1
  H  1470  1  0.20301500  0.46654100  0.74083100  1
  H  1471  1  0.20395400  0.43481900  0.76471300  1
  H  1472  1  0.20829300  0.48242100  0.77007800  1
  H  1478  1  0.35136600  0.02840500  0.15009300  1
  H  1480  1  0.24256900  0.97667200  0.11296400  1
  H  1482  1  0.28190000  0.91775100  0.15993200  1
  H  1483  1  0.26669000  0.91383400  0.13022900  1
  H  1484  1  0.23869200  0.93576300  0.15188300  1
  H  1486  1  0.31223600  0.08610300  0.10190800  1
  H  1487  1  0.35546700  0.06891200  0.11070400  1
  H  1488  1  0.32684700  0.09156000  0.13170200  1
  H  1494  1  0.23842300  0.97348800  0.65011800  1
  H  1496  1  0.34725100  0.02523400  0.61303800  1
  H  1498  1  0.30787600  0.08414400  0.65999700  1
  H  1499  1  0.32310400  0.08806800  0.63029800  1
  H  1500  1  0.35109000  0.06614000  0.65196000  1
  H  1502  1  0.27759500  0.91580500  0.60194400  1
  H  1503  1  0.23435700  0.93299900  0.61072300  1
  H  1504  1  0.26295200  0.91034000  0.63173000  1
  H  1510  1  0.26705700  0.05610900  0.39994600  1
  H  1512  1  0.32055100  0.94862200  0.36302300  1
  H  1514  1  0.37928800  0.98845700  0.41003800  1
  H  1515  1  0.38353300  0.97325000  0.38037500  1
  H  1516  1  0.36160600  0.94535600  0.40204400  1
  H  1518  1  0.20950700  0.01643800  0.35175800  1
  H  1519  1  0.22625900  0.05957900  0.36052600  1
  H  1520  1  0.20377600  0.03093100  0.38153500  1
  H  1526  1  0.32264400  0.94577700  0.89992400  1
  H  1528  1  0.26930900  0.05330300  0.86295400  1
  H  1530  1  0.21045300  0.01352500  0.90992800  1
  H  1531  1  0.20627900  0.02874400  0.88026500  1
  H  1532  1  0.22819700  0.05661000  0.90195300  1
  H  1534  1  0.38030700  0.98538500  0.85176900  1
  H  1535  1  0.36350400  0.94225800  0.86053100  1
  H  1536  1  0.38597300  0.97089300  0.88155300  1
  H  1542  1  0.73427300  0.97202500  0.86304000  1
  H  1544  1  0.84249100  0.02320600  0.90118600  1
  H  1546  1  0.80481800  0.08212000  0.85366100  1
  H  1547  1  0.81934200  0.08606500  0.88350400  1
  H  1548  1  0.84768600  0.06381400  0.86218000  1
  H  1550  1  0.77172300  0.91439700  0.91182700  1
  H  1551  1  0.72884700  0.93182900  0.90250700  1
  H  1552  1  0.75783900  0.90881700  0.88189600  1
  H  1558  1  0.85550800  0.03001600  0.36302300  1
  H  1560  1  0.74724800  0.97878300  0.40108700  1
  H  1562  1  0.78503200  0.91988900  0.35359100  1
  H  1563  1  0.77045900  0.91593900  0.38342300  1
  H  1564  1  0.74213900  0.93817100  0.36207900  1
  H  1566  1  0.81795300  0.08762100  0.41178700  1
  H  1567  1  0.86084800  0.07020000  0.40249900  1
  H  1568  1  0.83189300  0.09321200  0.38186700  1
  H  1574  1  0.82803400  0.94401100  0.61438500  1
  H  1576  1  0.77280800  0.05075400  0.65115500  1
  H  1578  1  0.71558800  0.01100400  0.60334600  1
  H  1579  1  0.71046200  0.02584200  0.63302700  1
  H  1580  1  0.73275800  0.05413000  0.61173700  1
  H  1582  1  0.88391000  0.98347600  0.66347000  1
  H  1583  1  0.86775100  0.94034700  0.65423400  1
  H  1584  1  0.89063600  0.96945000  0.63367900  1
  H  1590  1  0.76184900  0.05803600  0.11444100  1
  H  1592  1  0.81692300  0.95124700  0.15124900  1
  H  1594  1  0.87425100  0.99094500  0.10347400  1
  H  1595  1  0.87931600  0.97608700  0.13315400  1
  H  1596  1  0.85702000  0.94783200  0.11184600  1
  H  1598  1  0.70587100  0.01863400  0.16349700  1
  H  1599  1  0.72208300  0.06174900  0.15426700  1
  H  1600  1  0.69920300  0.03265900  0.13370000  1
  H  1606  1  0.85530400  0.53112300  0.65041400  1
  H  1608  1  0.74711900  0.47933400  0.61257400  1
  H  1610  1  0.78513900  0.42087500  0.66022400  1
  H  1611  1  0.77053000  0.41665100  0.63041400  1
  H  1612  1  0.74218900  0.43899100  0.65170100  1
  H  1614  1  0.81760600  0.58822200  0.60144400  1
  H  1615  1  0.86053700  0.57102100  0.61082600  1
  H  1616  1  0.83147400  0.59412100  0.63135300  1
  H  1622  1  0.73454300  0.47079400  0.15041700  1
  H  1624  1  0.84276100  0.52265500  0.11265600  1
  H  1626  1  0.80464200  0.58107300  0.16029400  1
  H  1627  1  0.81928900  0.58531600  0.13049500  1
  H  1628  1  0.84761400  0.56298400  0.15179300  1
  H  1630  1  0.77233400  0.41374500  0.10145400  1
  H  1631  1  0.72938100  0.43092700  0.11081500  1
  H  1632  1  0.75842300  0.40781900  0.13135300  1
  H  1638  1  0.76252100  0.55860000  0.90000300  1
  H  1640  1  0.81720700  0.45193700  0.86278500  1
  H  1642  1  0.87479900  0.49115500  0.91059500  1
  H  1643  1  0.87970100  0.47649700  0.88086300  1
  H  1644  1  0.85745500  0.44812900  0.90213000  1
  H  1646  1  0.70627600  0.51970000  0.85090700  1
  H  1647  1  0.72264500  0.56270000  0.86024500  1
  H  1648  1  0.69973400  0.53353700  0.88075000  1
  H  1654  1  0.82723500  0.44330500  0.39998000  1
  H  1656  1  0.77266500  0.54998300  0.36270900  1
  H  1658  1  0.71498200  0.51082100  0.41049400  1
  H  1659  1  0.71013200  0.52548400  0.38075800  1
  H  1660  1  0.73237300  0.55383200  0.40203600  1
  H  1662  1  0.88356600  0.48214200  0.35090400  1
  H  1663  1  0.86715900  0.43915500  0.36024200  1
  H  1664  1  0.89005800  0.46831800  0.38075700  1
  H  1670  1  0.23822000  0.46914900  0.36453100  1
  H  1672  1  0.34767200  0.52061000  0.40100100  1
  H  1674  1  0.30898300  0.57870600  0.35338300  1
  H  1675  1  0.32428000  0.58321600  0.38303000  1
  H  1676  1  0.35199600  0.56042000  0.36160600  1
  H  1678  1  0.27668300  0.41237000  0.41340500  1
  H  1679  1  0.23366100  0.42980600  0.40438500  1
  H  1680  1  0.26201700  0.40621400  0.38368000  1
  H  1686  1  0.35157200  0.53285100  0.86448900  1
  H  1688  1  0.24209900  0.48133500  0.90089900  1
  H  1690  1  0.28087000  0.42326400  0.85329700  1
  H  1691  1  0.26554600  0.41874500  0.88293700  1
  H  1692  1  0.23783800  0.44152500  0.86150100  1
  H  1694  1  0.31303200  0.58959900  0.91335500  1
  H  1695  1  0.35607000  0.57217800  0.90435000  1
  H  1696  1  0.32773400  0.59577200  0.88363800  1
  H  1702  1  0.32329400  0.44197900  0.11286000  1
  H  1704  1  0.26860000  0.54778000  0.15109900  1
  H  1706  1  0.21022900  0.50858700  0.10367300  1
  H  1707  1  0.20587300  0.52288400  0.13351700  1
  H  1708  1  0.22742300  0.55165300  0.11217800  1
  H  1710  1  0.38035700  0.48082400  0.16157500  1
  H  1711  1  0.36415600  0.43779100  0.15218100  1
  H  1712  1  0.38630900  0.46740200  0.13159700  1
  H  1718  1  0.26656700  0.56008900  0.61289900  1
  H  1720  1  0.32114300  0.45425300  0.65116800  1
  H  1722  1  0.37961300  0.49342600  0.60378700  1
  H  1723  1  0.38390700  0.47909900  0.63362900  1
  H  1724  1  0.36237200  0.45036600  0.61226700  1
  H  1726  1  0.20941300  0.52127700  0.66157800  1
  H  1727  1  0.22565000  0.56430200  0.65219600  1
  H  1728  1  0.20351600  0.53470200  0.63159800  1
  C  1  1  0.20909500  0.07775600  0.07937500  1
  C  2  1  0.21360900  0.06206100  0.05652800  1
  C  3  1  0.24157400  0.03623900  0.05186600  1
  C  4  1  0.26418900  0.02534100  0.07106100  1
  C  5  1  0.25882800  0.03905100  0.09436200  1
  C  6  1  0.23115700  0.06577900  0.09890800  1
  C  9  1  0.18315800  0.10662100  0.08157000  1
  C  10  1  0.19426200  0.14409700  0.08170400  1
  C  11  1  0.16647700  0.17136400  0.08404200  1
  C  12  1  0.12911700  0.16120100  0.08612900  1
  C  13  1  0.11839700  0.12424500  0.08578300  1
  C  14  1  0.14551400  0.09706000  0.08333200  1
  C  23  1  0.38073200  0.92418900  0.57940500  1
  C  24  1  0.37621200  0.93989900  0.55656400  1
  C  25  1  0.34824200  0.96572100  0.55191300  1
  C  26  1  0.32564300  0.97661800  0.57111900  1
  C  27  1  0.33099500  0.96287300  0.59441000  1
  C  28  1  0.35866700  0.93614000  0.59894300  1
  C  31  1  0.40669100  0.89534300  0.58159400  1
  C  32  1  0.39562100  0.85785600  0.58171500  1
  C  33  1  0.42342600  0.83061500  0.58406700  1
  C  34  1  0.46077600  0.84080900  0.58616800  1
  C  35  1  0.47146600  0.87777400  0.58582700  1
  C  36  1  0.44432500  0.90493600  0.58337300  1
  C  45  1  0.21891300  0.91411200  0.32957100  1
  C  46  1  0.23453200  0.91866400  0.30667400  1
  C  47  1  0.26028700  0.94662400  0.30192700  1
  C  48  1  0.27118700  0.96923100  0.32105800  1
  C  49  1  0.25750400  0.96390300  0.34438600  1
  C  50  1  0.23085700  0.93621100  0.34903900  1
  C  53  1  0.19006900  0.88814000  0.33188900  1
  C  54  1  0.15222400  0.89885000  0.33213600  1
  C  55  1  0.12501600  0.87107900  0.33478100  1
  C  56  1  0.13558500  0.83411700  0.33705300  1
  C  57  1  0.17290800  0.82379000  0.33656200  1
  C  58  1  0.20004500  0.85089100  0.33383700  1
  C  67  1  0.37089900  0.08783800  0.82959300  1
  C  68  1  0.35529000  0.08331300  0.80669100  1
  C  69  1  0.32955700  0.05534400  0.80192200  1
  C  70  1  0.31868100  0.03268500  0.82103400  1
  C  71  1  0.33238300  0.03795800  0.84436400  1
  C  72  1  0.35897600  0.06568900  0.84904200  1
  C  75  1  0.39973600  0.11381600  0.83193500  1
  C  76  1  0.43758300  0.10310800  0.83218100  1
  C  77  1  0.46478700  0.13087100  0.83486700  1
  C  78  1  0.45421300  0.16783100  0.83716300  1
  C  79  1  0.41689000  0.17815800  0.83667000  1
  C  80  1  0.38975700  0.15106100  0.83390700  1
  C  89  1  0.37903800  0.07973500  0.43400000  1
  C  90  1  0.37447400  0.06398700  0.45682400  1
  C  91  1  0.34717100  0.03738900  0.46128000  1
  C  92  1  0.32536800  0.02566900  0.44189200  1
  C  93  1  0.33091000  0.03945400  0.41863500  1
  C  94  1  0.35767000  0.06715800  0.41431400  1
  C  97  1  0.40513400  0.10845200  0.43182800  1
  C  98  1  0.39437600  0.14601900  0.43175800  1
  C  99  1  0.42243400  0.17304600  0.42957400  1
  C  100  1  0.45972100  0.16255100  0.42756600  1
  C  101  1  0.47008600  0.12549500  0.42783000  1
  C  102  1  0.44269500  0.09855900  0.43011400  1
  C  111  1  0.21065800  0.92223400  0.93395100  1
  C  112  1  0.21521400  0.93799700  0.95677300  1
  C  113  1  0.24250500  0.96460900  0.96121900  1
  C  114  1  0.26429600  0.97633600  0.94182900  1
  C  115  1  0.25879100  0.96250700  0.91857900  1
  C  116  1  0.23203700  0.93479500  0.91426500  1
  C  119  1  0.18456800  0.89351200  0.93178400  1
  C  120  1  0.19533000  0.85594600  0.93171100  1
  C  121  1  0.16727600  0.82891800  0.92952300  1
  C  122  1  0.12998700  0.83940400  0.92752700  1
  C  123  1  0.11961800  0.87645900  0.92780000  1
  C  124  1  0.14700400  0.90339900  0.93008000  1
  C  133  1  0.37408300  0.91670400  0.18358500  1
  C  134  1  0.35840300  0.92110000  0.20647300  1
  C  135  1  0.33186000  0.94836500  0.21112100  1
  C  136  1  0.32011600  0.97034400  0.19188300  1
  C  137  1  0.33391700  0.96507300  0.16858100  1
  C  138  1  0.36154800  0.93830500  0.16404600  1
  C  141  1  0.40261200  0.89042500  0.18118000  1
  C  142  1  0.44061200  0.90054000  0.18103500  1
  C  143  1  0.46738900  0.87231800  0.17856300  1
  C  144  1  0.45624600  0.83550100  0.17635000  1
  C  145  1  0.41875200  0.82578500  0.17672100  1
  C  146  1  0.39205200  0.85333500  0.17926300  1
  C  155  1  0.21571900  0.08527400  0.68357900  1
  C  156  1  0.23140000  0.08090900  0.70646900  1
  C  157  1  0.25792500  0.05363800  0.71113400  1
  C  158  1  0.26963900  0.03160400  0.69191600  1
  C  159  1  0.25582700  0.03682600  0.66860800  1
  C  160  1  0.22823800  0.06362700  0.66405700  1
  C  163  1  0.18719600  0.11155300  0.68115200  1
  C  164  1  0.14919700  0.10143800  0.68101100  1
  C  165  1  0.12241600  0.12965000  0.67849600  1
  C  166  1  0.13356100  0.16646300  0.67625800  1
  C  167  1  0.17105400  0.17618400  0.67662700  1
  C  168  1  0.19775200  0.14863900  0.67920600  1
  C  177  1  0.87469400  0.92269100  0.93545700  1
  C  178  1  0.86981100  0.93877600  0.95815800  1
  C  179  1  0.84177200  0.96467700  0.96245000  1
  C  180  1  0.81946600  0.97522600  0.94301700  1
  C  181  1  0.82524100  0.96116200  0.91984600  1
  C  182  1  0.85298000  0.93435800  0.91568500  1
  C  185  1  0.90074700  0.89387200  0.93361900  1
  C  186  1  0.88973300  0.85637500  0.93345600  1
  C  187  1  0.91762800  0.82917800  0.93137400  1
  C  188  1  0.95502000  0.83940100  0.92969100  1
  C  189  1  0.96565100  0.87637200  0.93013100  1
  C  190  1  0.93839500  0.90351400  0.93209800  1
  C  199  1  0.71501200  0.07927500  0.43541200  1
  C  200  1  0.71989800  0.06317200  0.45810700  1
  C  201  1  0.74793400  0.03726300  0.46238300  1
  C  202  1  0.77021900  0.02671100  0.44294200  1
  C  203  1  0.76446300  0.04081700  0.41978100  1
  C  204  1  0.73672700  0.06762800  0.41563300  1
  C  207  1  0.68896000  0.10809600  0.43358400  1
  C  208  1  0.69997400  0.14559500  0.43342700  1
  C  209  1  0.67207600  0.17279200  0.43135000  1
  C  210  1  0.63468100  0.16257000  0.42967900  1
  C  211  1  0.62405200  0.12559700  0.43012000  1
  C  212  1  0.65130900  0.09845600  0.43207400  1
  C  221  1  0.87378000  0.08590000  0.68534400  1
  C  222  1  0.85738600  0.08170100  0.70804800  1
  C  223  1  0.83138900  0.05387900  0.71260000  1
  C  224  1  0.82116500  0.03094600  0.69347800  1
  C  225  1  0.83559500  0.03592000  0.67030600  1
  C  226  1  0.86233900  0.06359500  0.66583700  1
  C  229  1  0.90251500  0.11204900  0.68312900  1
  C  230  1  0.94038600  0.10148400  0.68220000  1
  C  231  1  0.96735400  0.12931200  0.67888500  1
  C  232  1  0.95655400  0.16622200  0.67677600  1
  C  233  1  0.91925800  0.17645900  0.67807000  1
  C  234  1  0.89235200  0.14928200  0.68137700  1
  C  243  1  0.71600100  0.91605300  0.18533300  1
  C  244  1  0.73238600  0.92021100  0.20804200  1
  C  245  1  0.75836500  0.94804000  0.21262400  1
  C  246  1  0.76856100  0.97104100  0.19352700  1
  C  247  1  0.75410900  0.96614000  0.17035300  1
  C  248  1  0.72742000  0.93842600  0.16585100  1
  C  251  1  0.68728200  0.88989500  0.18308400  1
  C  252  1  0.64940800  0.90044700  0.18214200  1
  C  253  1  0.62245500  0.87261800  0.17877900  1
  C  254  1  0.63327100  0.83571600  0.17664400  1
  C  255  1  0.67056900  0.82548700  0.17795100  1
  C  256  1  0.69745900  0.85266800  0.18131200  1
  C  265  1  0.71677200  0.92048200  0.57898100  1
  C  266  1  0.72167500  0.93670100  0.55632500  1
  C  267  1  0.74903000  0.96340300  0.55227200  1
  C  268  1  0.77051700  0.97473700  0.57190800  1
  C  269  1  0.76459800  0.96050000  0.59501300  1
  C  270  1  0.73781000  0.93268200  0.59891500  1
  C  273  1  0.69051300  0.89185200  0.58077400  1
  C  274  1  0.70110900  0.85424500  0.58086000  1
  C  275  1  0.67289100  0.82734600  0.58279700  1
  C  276  1  0.63559800  0.83797500  0.58441700  1
  C  277  1  0.62539900  0.87506500  0.58406700  1
  C  278  1  0.65297200  0.90190100  0.58226500  1
  C  287  1  0.87309400  0.08146300  0.07902500  1
  C  288  1  0.86817500  0.06522700  0.05637700  1
  C  289  1  0.84083000  0.03851100  0.05234600  1
  C  290  1  0.81937200  0.02717500  0.07199300  1
  C  291  1  0.82527400  0.04146100  0.09508700  1
  C  292  1  0.85206500  0.06928700  0.09896900  1
  C  295  1  0.89934800  0.11009900  0.08080200  1
  C  296  1  0.88874900  0.14770500  0.08089000  1
  C  297  1  0.91696400  0.17461000  0.08281500  1
  C  298  1  0.95426000  0.16398800  0.08441200  1
  C  299  1  0.96446400  0.12689700  0.08405600  1
  C  300  1  0.93689400  0.10005800  0.08226700  1
  C  309  1  0.71288900  0.08371900  0.82928600  1
  C  310  1  0.72935400  0.07958600  0.80660200  1
  C  311  1  0.75609800  0.05241100  0.80220800  1
  C  312  1  0.76713700  0.03015500  0.82148700  1
  C  313  1  0.75259400  0.03518100  0.84461900  1
  C  314  1  0.72487800  0.06195900  0.84890600  1
  C  317  1  0.68443200  0.11014100  0.83153300  1
  C  318  1  0.64641700  0.10011800  0.83236300  1
  C  319  1  0.61981900  0.12836500  0.83545300  1
  C  320  1  0.63113400  0.16514700  0.83746400  1
  C  321  1  0.66858900  0.17482600  0.83628600  1
  C  322  1  0.69511300  0.14723400  0.83320900  1
  C  331  1  0.87693300  0.91822700  0.32931400  1
  C  332  1  0.86047400  0.92231600  0.30662400  1
  C  333  1  0.83373800  0.94948900  0.30220300  1
  C  334  1  0.82272400  0.97180600  0.32145700  1
  C  335  1  0.83726900  0.96684500  0.34459700  1
  C  336  1  0.86495000  0.94004100  0.34890900  1
  C  339  1  0.90538000  0.89179800  0.33159300  1
  C  340  1  0.94339700  0.90181400  0.33242800  1
  C  341  1  0.96998100  0.87356700  0.33556100  1
  C  342  1  0.95865600  0.83679100  0.33759500  1
  C  343  1  0.92120000  0.82711600  0.33641000  1
  C  344  1  0.89468800  0.85471000  0.33329000  1
  C  353  1  0.71443100  0.58005300  0.57850200  1
  C  354  1  0.71883800  0.56382100  0.55580500  1
  C  355  1  0.74666500  0.53774700  0.55137600  1
  C  356  1  0.76930200  0.52725000  0.57065600  1
  C  357  1  0.76396700  0.54143200  0.59383700  1
  C  358  1  0.73636600  0.56831200  0.59815800  1
  C  361  1  0.68853800  0.60898900  0.58052600  1
  C  362  1  0.69979000  0.64640800  0.58130800  1
  C  363  1  0.67210100  0.67367600  0.58404200  1
  C  364  1  0.63466200  0.66361100  0.58567500  1
  C  365  1  0.62378800  0.62675000  0.58448700  1
  C  366  1  0.65082700  0.59953300  0.58186700  1
  C  375  1  0.87546800  0.42194100  0.07852900  1
  C  376  1  0.87106400  0.43819300  0.05583600  1
  C  377  1  0.84325100  0.46428300  0.05142100  1
  C  378  1  0.82064200  0.47479400  0.07071200  1
  C  379  1  0.82595200  0.46056800  0.09388200  1
  C  380  1  0.85353900  0.43366800  0.09819000  1
  C  383  1  0.90134200  0.39298300  0.08053900  1
  C  384  1  0.89006900  0.35557300  0.08131600  1
  C  385  1  0.91774100  0.32828600  0.08404100  1
  C  386  1  0.95518500  0.33832600  0.08566900  1
  C  387  1  0.96608400  0.37517900  0.08448200  1
  C  388  1  0.93906200  0.40241400  0.08187300  1
  C  397  1  0.71620000  0.41767600  0.82837100  1
  C  398  1  0.73256500  0.42218700  0.80568600  1
  C  399  1  0.75859100  0.45004000  0.80129900  1
  C  400  1  0.76890800  0.47262900  0.82057500  1
  C  401  1  0.75450600  0.46729200  0.84372000  1
  C  402  1  0.72768200  0.43964100  0.84801900  1
  C  405  1  0.68714700  0.39186000  0.83030900  1
  C  406  1  0.64939500  0.40286800  0.83075700  1
  C  407  1  0.62198700  0.37524200  0.83314000  1
  C  408  1  0.63223800  0.33812100  0.83481000  1
  C  409  1  0.66945700  0.32749800  0.83404300  1
  C  410  1  0.69681800  0.35448200  0.83180600  1
  C  419  1  0.87362300  0.58429600  0.32838400  1
  C  420  1  0.85726500  0.57981300  0.30569600  1
  C  421  1  0.83126500  0.55194600  0.30128800  1
  C  422  1  0.82097800  0.52930000  0.32054200  1
  C  423  1  0.83539600  0.53458200  0.34368900  1
  C  424  1  0.86216200  0.56227900  0.34801300  1
  C  427  1  0.90266700  0.61011800  0.33034700  1
  C  428  1  0.94042200  0.59911200  0.33079500  1
  C  429  1  0.96782500  0.62673100  0.33321700  1
  C  430  1  0.95757000  0.66385100  0.33491300  1
  C  431  1  0.92034900  0.67447100  0.33414200  1
  C  432  1  0.89299400  0.64749000  0.33187200  1
  C  441  1  0.87384600  0.58211500  0.93492500  1
  C  442  1  0.86938400  0.56573700  0.95757200  1
  C  443  1  0.84227900  0.53882100  0.96172400  1
  C  444  1  0.82053700  0.52750100  0.94220500  1
  C  445  1  0.82606500  0.54186400  0.91909800  1
  C  446  1  0.85266800  0.56981600  0.91507900  1
  C  449  1  0.89984600  0.61095700  0.93299200  1
  C  450  1  0.88888400  0.64845200  0.93230500  1
  C  451  1  0.91680700  0.67554000  0.92978900  1
  C  452  1  0.95419100  0.66520400  0.92827000  1
  C  453  1  0.96476500  0.62825100  0.92933200  1
  C  454  1  0.93749200  0.60122800  0.93172200  1
  C  463  1  0.71593000  0.41987200  0.43491400  1
  C  464  1  0.72040300  0.43627400  0.45755200  1
  C  465  1  0.74749600  0.46320800  0.46168000  1
  C  466  1  0.76920300  0.47453100  0.44214700  1
  C  467  1  0.76369700  0.46011100  0.41905200  1
  C  468  1  0.73709600  0.43215100  0.41505500  1
  C  471  1  0.68992600  0.39102600  0.43299900  1
  C  472  1  0.70088800  0.35353100  0.43231500  1
  C  473  1  0.67296000  0.32644600  0.42980700  1
  C  474  1  0.63557600  0.33678200  0.42829000  1
  C  475  1  0.62500800  0.37373600  0.42935200  1
  C  476  1  0.65228100  0.40075800  0.43173300  1
  C  485  1  0.87682900  0.41992400  0.68475900  1
  C  486  1  0.86034400  0.42433300  0.70740900  1
  C  487  1  0.83358700  0.45155200  0.71164300  1
  C  488  1  0.82251200  0.47349800  0.69222500  1
  C  489  1  0.83709000  0.46815900  0.66913000  1
  C  490  1  0.86487200  0.44140200  0.66501000  1
  C  493  1  0.90555900  0.39377300  0.68278700  1
  C  494  1  0.94347700  0.40416900  0.68246900  1
  C  495  1  0.97045200  0.37607800  0.68030900  1
  C  496  1  0.95960600  0.33910600  0.67871600  1
  C  497  1  0.92220500  0.32910600  0.67933900  1
  C  498  1  0.89529100  0.35655400  0.68134100  1
  C  507  1  0.71298000  0.58206300  0.18474600  1
  C  508  1  0.72945900  0.57767800  0.20740100  1
  C  509  1  0.75620800  0.55046100  0.21165100  1
  C  510  1  0.76726400  0.52846900  0.19225100  1
  C  511  1  0.75268000  0.53376100  0.16914900  1
  C  512  1  0.72493100  0.56054600  0.16501500  1
  C  515  1  0.68425300  0.60821000  0.18275400  1
  C  516  1  0.64633500  0.59781100  0.18244100  1
  C  517  1  0.61935600  0.62589100  0.18024800  1
  C  518  1  0.63019700  0.66286400  0.17862900  1
  C  519  1  0.66759800  0.67286900  0.17925000  1
  C  520  1  0.69451500  0.64542900  0.18127800  1
  C  529  1  0.38007300  0.42033400  0.43582600  1
  C  530  1  0.37598900  0.43703100  0.45841700  1
  C  531  1  0.34839900  0.46338600  0.46276500  1
  C  532  1  0.32563000  0.47365100  0.44349100  1
  C  533  1  0.33063100  0.45901800  0.42039800  1
  C  534  1  0.35803100  0.43189700  0.41617200  1
  C  537  1  0.40606500  0.39144100  0.43386600  1
  C  538  1  0.39500400  0.35396800  0.43290800  1
  C  539  1  0.42287500  0.32679600  0.43048200  1
  C  540  1  0.46033300  0.33699500  0.42952400  1
  C  541  1  0.47101400  0.37389400  0.43089300  1
  C  542  1  0.44377700  0.40102800  0.43292400  1
  C  551  1  0.20967900  0.58160300  0.93576900  1
  C  552  1  0.21376900  0.56489200  0.95835800  1
  C  553  1  0.24135000  0.53852600  0.96269300  1
  C  554  1  0.26409000  0.52824800  0.94341000  1
  C  555  1  0.25910600  0.54291900  0.92032400  1
  C  556  1  0.23171700  0.57005400  0.91611000  1
  C  559  1  0.18369600  0.61050600  0.93382200  1
  C  560  1  0.19476700  0.64797700  0.93286600  1
  C  561  1  0.16690300  0.67515700  0.93045100  1
  C  562  1  0.12944000  0.66496600  0.92950000  1
  C  563  1  0.11875100  0.62807000  0.93086900  1
  C  564  1  0.14598200  0.60093000  0.93289400  1
  C  573  1  0.37059900  0.58268900  0.18427100  1
  C  574  1  0.35506500  0.57794300  0.20717500  1
  C  575  1  0.32935600  0.54991700  0.21187900  1
  C  576  1  0.31842200  0.52743300  0.19269100  1
  C  577  1  0.33202000  0.53294100  0.16935700  1
  C  578  1  0.35858500  0.56073200  0.16474800  1
  C  581  1  0.39947200  0.60865000  0.18199000  1
  C  582  1  0.43727400  0.59782800  0.18127800  1
  C  583  1  0.46448900  0.62555200  0.17851100  1
  C  584  1  0.45400900  0.66259600  0.17675300  1
  C  585  1  0.41677400  0.67307700  0.17788600  1
  C  586  1  0.38959200  0.64598400  0.18049100  1
  C  595  1  0.21918300  0.41926500  0.68422500  1
  C  596  1  0.23471200  0.42395300  0.70713600  1
  C  597  1  0.26039800  0.45198400  0.71187300  1
  C  598  1  0.27130500  0.47454500  0.69271700  1
  C  599  1  0.25768700  0.46911900  0.66937800  1
  C  600  1  0.23117400  0.44129300  0.66473200  1
  C  603  1  0.19032400  0.39329200  0.68190700  1
  C  604  1  0.15251900  0.40410100  0.68118800  1
  C  605  1  0.12531600  0.37637900  0.67836800  1
  C  606  1  0.13581000  0.33934100  0.67658100  1
  C  607  1  0.17304700  0.32887100  0.67772500  1
  C  608  1  0.20021500  0.35596700  0.68037900  1
  C  617  1  0.21135500  0.41833500  0.07855000  1
  C  618  1  0.21546100  0.43510600  0.05598600  1
  C  619  1  0.24241300  0.46218100  0.05184600  1
  C  620  1  0.26440900  0.47322500  0.07131600  1
  C  621  1  0.25925900  0.45849000  0.09436300  1
  C  622  1  0.23277500  0.43041500  0.09835200  1
  C  625  1  0.18518200  0.38961500  0.08049200  1
  C  626  1  0.19586400  0.35203800  0.08134800  1
  C  627  1  0.16771000  0.32512600  0.08365100  1
  C  628  1  0.13034700  0.33569700  0.08462100  1
  C  629  1  0.12005500  0.37271600  0.08339200  1
  C  630  1  0.14757500  0.39957400  0.08147200  1
  C  639  1  0.37850600  0.58365100  0.57858400  1
  C  640  1  0.37439700  0.56685500  0.55602800  1
  C  641  1  0.34745700  0.53976200  0.55190900  1
  C  642  1  0.32548100  0.52872300  0.57138800  1
  C  643  1  0.33060100  0.54351800  0.59442300  1
  C  644  1  0.35708300  0.57159800  0.59839200  1
  C  647  1  0.40469700  0.61235700  0.58051200  1
  C  648  1  0.39404600  0.64994200  0.58135800  1
  C  649  1  0.42222200  0.67683300  0.58364800  1
  C  650  1  0.45957800  0.66623500  0.58461300  1
  C  651  1  0.46983800  0.62921000  0.58339600  1
  C  652  1  0.44229800  0.60237100  0.58148500  1
  C  661  1  0.21601300  0.58013500  0.33028700  1
  C  662  1  0.23161900  0.57553200  0.30739300  1
  C  663  1  0.25814600  0.54822300  0.30280500  1
  C  664  1  0.26995000  0.52640500  0.32210900  1
  C  665  1  0.25623800  0.53189200  0.34541400  1
  C  666  1  0.22864300  0.55872300  0.34989100  1
  C  669  1  0.18741400  0.60636500  0.33263500  1
  C  670  1  0.14947000  0.59607800  0.33328000  1
  C  671  1  0.12263300  0.62421000  0.33586100  1
  C  672  1  0.13363100  0.66113100  0.33751300  1
  C  673  1  0.17102300  0.67106000  0.33646200  1
  C  674  1  0.19781300  0.64355900  0.33405800  1
  C  683  1  0.37381600  0.42178000  0.83029100  1
  C  684  1  0.35821300  0.42633400  0.80739200  1
  C  685  1  0.33169200  0.45363800  0.80277900  1
  C  686  1  0.31990900  0.47551500  0.82205800  1
  C  687  1  0.33362800  0.47009400  0.84537100  1
  C  688  1  0.36119300  0.44324400  0.84987200  1
  C  691  1  0.40240800  0.39555000  0.83267200  1
  C  692  1  0.44035300  0.40583400  0.83332300  1
  C  693  1  0.46718300  0.37770800  0.83596300  1
  C  694  1  0.45617900  0.34079200  0.83764800  1
  C  695  1  0.41878700  0.33086400  0.83658800  1
  C  696  1  0.39200500  0.35835900  0.83413200  1
  C  705  1  0.17370600  0.20947100  0.08291200  1
  C  706  1  0.17091000  0.22935000  0.06119200  1
  C  707  1  0.17150800  0.26791700  0.06216800  1
  C  708  1  0.17465000  0.28692300  0.08402600  1
  C  709  1  0.17872400  0.26703000  0.10565200  1
  C  711  1  0.17824100  0.22842700  0.10468400  1
  C  713  1  0.18200500  0.28442700  0.12957800  1
  C  717  1  0.16569200  0.21209600  0.03735200  1
  C  721  1  0.41623700  0.79250000  0.58292700  1
  C  722  1  0.41906300  0.77263200  0.56120300  1
  C  723  1  0.41847300  0.73406500  0.56216800  1
  C  724  1  0.41532000  0.71504400  0.58401700  1
  C  725  1  0.41117200  0.73492100  0.60564500  1
  C  727  1  0.41164800  0.77352600  0.60468700  1
  C  729  1  0.40783600  0.71751300  0.62956500  1
  C  733  1  0.42430700  0.78990000  0.53737000  1
  C  737  1  0.08656100  0.87801200  0.33393300  1
  C  738  1  0.06612500  0.87494200  0.31238900  1
  C  739  1  0.02729800  0.87595900  0.31365400  1
  C  740  1  0.00859100  0.87975600  0.33562300  1
  C  741  1  0.02904400  0.88403100  0.35706700  1
  C  743  1  0.06791200  0.88314300  0.35580900  1
  C  745  1  0.01195500  0.88808000  0.38107400  1
  C  749  1  0.08301900  0.86914400  0.28846200  1
  C  753  1  0.50323900  0.12395000  0.83397000  1
  C  754  1  0.52361800  0.12699200  0.81240200  1
  C  755  1  0.56245000  0.12595500  0.81361800  1
  C  756  1  0.58121300  0.12215500  0.83556700  1
  C  757  1  0.56082500  0.11793900  0.85704000  1
  C  759  1  0.52195400  0.11884800  0.85582600  1
  C  761  1  0.57798200  0.11392500  0.88102700  1
  C  765  1  0.50666000  0.13278500  0.78849400  1
  C  769  1  0.41555900  0.21121000  0.43082700  1
  C  770  1  0.41850400  0.23088200  0.45262000  1
  C  771  1  0.41836600  0.26946000  0.45177800  1
  C  772  1  0.41555900  0.28866400  0.42997900  1
  C  773  1  0.41127700  0.26900900  0.40827800  1
  C  775  1  0.41131200  0.23039400  0.40911500  1
  C  777  1  0.40824700  0.28663800  0.38441200  1
  C  781  1  0.42342600  0.21337800  0.47641000  1
  C  785  1  0.17415300  0.79075300  0.93077600  1
  C  786  1  0.17123000  0.77108200  0.95257100  1
  C  787  1  0.17139500  0.73250400  0.95173400  1
  C  788  1  0.17422800  0.71328700  0.92994000  1
  C  789  1  0.17849500  0.73294700  0.90823900  1
  C  791  1  0.17843100  0.77156000  0.90907100  1
  C  793  1  0.18153900  0.71531000  0.88437500  1
  C  797  1  0.16629300  0.78858500  0.97635900  1
  C  801  1  0.50593500  0.87864900  0.17964500  1
  C  802  1  0.52599500  0.87536300  0.20132400  1
  C  803  1  0.56484900  0.87584700  0.20031400  1
  C  804  1  0.58394500  0.87935100  0.17846700  1
  C  805  1  0.56388800  0.88384300  0.15688600  1
  C  807  1  0.52499500  0.88347100  0.15788800  1
  C  809  1  0.58141100  0.88762300  0.13299100  1
  C  813  1  0.50865400  0.86986800  0.22514900  1
  C  817  1  0.08387400  0.12332100  0.67962400  1
  C  818  1  0.06386400  0.12658400  0.70132500  1
  C  819  1  0.02500600  0.12607200  0.70035800  1
  C  820  1  0.00586200  0.12255500  0.67853000  1
  C  821  1  0.02586300  0.11811500  0.65692400  1
  C  823  1  0.06475800  0.11851600  0.65788600  1
  C  825  1  0.00828100  0.11436000  0.63304500  1
  C  829  1  0.08126000  0.13208400  0.72513000  1
  C  833  1  0.91039000  0.79105900  0.93203400  1
  C  834  1  0.91314400  0.77054900  0.95350100  1
  C  835  1  0.91263200  0.73202000  0.95202300  1
  C  836  1  0.90967600  0.71369700  0.92990800  1
  C  837  1  0.90558600  0.73420700  0.90853600  1
  C  839  1  0.90594400  0.77276800  0.91001200  1
  C  841  1  0.90243000  0.71751300  0.88439100  1
  C  845  1  0.91822300  0.78711700  0.97755800  1
  C  849  1  0.67930900  0.21091100  0.43201700  1
  C  850  1  0.67656800  0.23141500  0.45348800  1
  C  851  1  0.67710500  0.26994300  0.45202100  1
  C  852  1  0.68009400  0.28828700  0.42991500  1
  C  853  1  0.68417300  0.26778000  0.40853800  1
  C  855  1  0.68378700  0.22921900  0.41000400  1
  C  857  1  0.68735100  0.28448700  0.38439900  1
  C  861  1  0.67147000  0.21483700  0.47754100  1
  C  865  1  0.67970300  0.78915100  0.58205000  1
  C  866  1  0.67667000  0.76878000  0.56054200  1
  C  867  1  0.67673400  0.73024100  0.56193800  1
  C  868  1  0.67952600  0.71177800  0.58401000  1
  C  869  1  0.68388900  0.73213000  0.60542600  1
  C  871  1  0.68396300  0.77069900  0.60403200  1
  C  873  1  0.68692700  0.71527100  0.62952900  1
  C  877  1  0.67175900  0.78552400  0.53652300  1
  C  881  1  0.91015000  0.21280100  0.08206800  1
  C  882  1  0.91316300  0.23317500  0.06055900  1
  C  883  1  0.91308900  0.27171200  0.06195000  1
  C  884  1  0.91028500  0.29018900  0.08401800  1
  C  885  1  0.90593600  0.26983500  0.10543200  1
  C  887  1  0.90587300  0.23126400  0.10404400  1
  C  889  1  0.90289800  0.28669800  0.12953400  1
  C  893  1  0.91807100  0.21642700  0.03653900  1
  C  897  1  0.58359800  0.38253800  0.83284700  1
  C  898  1  0.56251100  0.38031500  0.81152800  1
  C  899  1  0.52373400  0.38126400  0.81331800  1
  C  900  1  0.50573200  0.38415400  0.83559400  1
  C  901  1  0.52683800  0.38767200  0.85682500  1
  C  903  1  0.56564800  0.38686500  0.85504100  1
  C  905  1  0.51050500  0.39077400  0.88111100  1
  C  909  1  0.57868700  0.37542500  0.78730800  1
  C  913  1  0.00621400  0.61944000  0.33288200  1
  C  914  1  0.02724800  0.62161600  0.31153900  1
  C  915  1  0.06603000  0.62063700  0.31328500  1
  C  916  1  0.08408400  0.61774800  0.33554300  1
  C  917  1  0.06303800  0.61430600  0.35680100  1
  C  919  1  0.02422400  0.61514500  0.35505900  1
  C  921  1  0.07943500  0.61124400  0.38107200  1
  C  925  1  0.01101200  0.62649600  0.28733600  1
  C  929  1  0.00894700  0.38277000  0.68082300  1
  C  930  1  0.02970700  0.38020600  0.70226200  1
  C  931  1  0.06851600  0.38062400  0.70069700  1
  C  932  1  0.08685900  0.38335500  0.67853000  1
  C  933  1  0.06609800  0.38721500  0.65718200  1
  C  935  1  0.02725700  0.38692000  0.65874000  1
  C  937  1  0.08281000  0.39018700  0.63299700  1
  C  941  1  0.01313500  0.37549600  0.72638300  1
  C  945  1  0.58086500  0.61919900  0.18081400  1
  C  946  1  0.56016200  0.62172800  0.20227600  1
  C  947  1  0.52134800  0.62128200  0.20076200  1
  C  948  1  0.50294400  0.61855200  0.17861800  1
  C  949  1  0.52363700  0.61475700  0.15723900  1
  C  951  1  0.56248300  0.61508000  0.15875000  1
  C  953  1  0.50685500  0.61182400  0.13307300  1
  C  957  1  0.57680600  0.62642700  0.22637900  1
  C  961  1  0.00237800  0.11776400  0.08430000  1
  C  962  1  0.02297700  0.11483700  0.06282600  1
  C  963  1  0.06181200  0.11360000  0.06429500  1
  C  964  1  0.08035300  0.11575200  0.08642900  1
  C  965  1  0.05968400  0.11749600  0.10794600  1
  C  967  1  0.02084100  0.11834200  0.10648500  1
  C  969  1  0.07658400  0.12008600  0.13210000  1
  C  973  1  0.00483100  0.11532200  0.03898600  1
  C  977  1  0.58748700  0.88420900  0.58433500  1
  C  978  1  0.56686500  0.88718300  0.56287500  1
  C  979  1  0.52803300  0.88844600  0.56436500  1
  C  980  1  0.50949400  0.88631700  0.58650500  1
  C  981  1  0.53020600  0.88446300  0.60800100  1
  C  983  1  0.56904700  0.88359100  0.60652500  1
  C  985  1  0.51332000  0.88182000  0.63215400  1
  C  989  1  0.58498300  0.88671600  0.53902500  1
  C  993  1  0.18031800  0.70866700  0.33616900  1
  C  994  1  0.18194600  0.72861200  0.31443300  1
  C  995  1  0.18294400  0.76718900  0.31547000  1
  C  996  1  0.18183100  0.78613300  0.33744000  1
  C  997  1  0.18145500  0.76613700  0.35919100  1
  C  999  1  0.18082400  0.72754300  0.35815600  1
  C  1001  1  0.18001400  0.78350100  0.38320500  1
  C  1005  1  0.18028400  0.71004500  0.29079300  1
  C  1009  1  0.40949700  0.29325100  0.83628400  1
  C  1010  1  0.40790000  0.27332800  0.81453900  1
  C  1011  1  0.40689200  0.23475000  0.81557000  1
  C  1012  1  0.40796600  0.21582400  0.83754600  1
  C  1013  1  0.40833800  0.23579100  0.85930800  1
  C  1015  1  0.40897700  0.27438600  0.85827600  1
  C  1017  1  0.40975300  0.21841300  0.88331900  1
  C  1021  1  0.40959400  0.29190600  0.79090300  1
  C  1025  1  0.58601600  0.11697100  0.42975000  1
  C  1026  1  0.56516900  0.11461300  0.45115500  1
  C  1027  1  0.52633100  0.11415400  0.44954700  1
  C  1028  1  0.50803100  0.11656800  0.42734100  1
  C  1029  1  0.52890600  0.11777000  0.40589500  1
  C  1031  1  0.56774700  0.11782500  0.40750000  1
  C  1033  1  0.51227000  0.12057200  0.38167600  1
  C  1037  1  0.58311000  0.11488200  0.47506200  1
  C  1041  1  0.00368700  0.88499600  0.92975500  1
  C  1042  1  0.02454800  0.88734400  0.95115200  1
  C  1043  1  0.06338500  0.88779600  0.94953400  1
  C  1044  1  0.08167100  0.88538200  0.92732200  1
  C  1045  1  0.06078100  0.88419000  0.90588200  1
  C  1047  1  0.02194100  0.88414100  0.90749700  1
  C  1049  1  0.07740000  0.88139100  0.88165700  1
  C  1053  1  0.00662200  0.88707400  0.97506500  1
  C  1057  1  0.40815300  0.71084500  0.17790500  1
  C  1058  1  0.40710700  0.73119800  0.19949700  1
  C  1059  1  0.40730200  0.76977000  0.19818500  1
  C  1060  1  0.40910100  0.78829800  0.17608500  1
  C  1061  1  0.40889400  0.76795400  0.15447400  1
  C  1063  1  0.40831000  0.72938000  0.15578600  1
  C  1065  1  0.41092700  0.78487300  0.13034200  1
  C  1069  1  0.40816400  0.71298900  0.22326800  1
  C  1073  1  0.18166700  0.29109100  0.67776600  1
  C  1074  1  0.18266300  0.27078400  0.69937600  1
  C  1075  1  0.18246100  0.23221200  0.69808400  1
  C  1076  1  0.18070200  0.21368000  0.67598300  1
  C  1077  1  0.18093400  0.23397700  0.65435700  1
  C  1079  1  0.18152400  0.27255400  0.65565100  1
  C  1081  1  0.17893000  0.21702900  0.63023200  1
  C  1085  1  0.18157000  0.28902500  0.72313700  1
  C  1089  1  0.91283300  0.29152600  0.67924800  1
  C  1090  1  0.91013900  0.27123200  0.70079700  1
  C  1091  1  0.90863500  0.23269000  0.69944200  1
  C  1092  1  0.91030100  0.21412200  0.67734700  1
  C  1093  1  0.91172500  0.23451200  0.65576700  1
  C  1095  1  0.91281600  0.27306600  0.65710900  1
  C  1097  1  0.91376100  0.21754700  0.63164600  1
  C  1101  1  0.91124900  0.28937500  0.72458800  1
  C  1105  1  0.67696800  0.71045700  0.17915900  1
  C  1106  1  0.67961400  0.73074400  0.20071400  1
  C  1107  1  0.68113200  0.76928600  0.19935400  1
  C  1108  1  0.67953500  0.78781700  0.17724600  1
  C  1109  1  0.67813300  0.76744300  0.15566000  1
  C  1111  1  0.67702500  0.72889000  0.15701200  1
  C  1113  1  0.67615000  0.78440300  0.13153700  1
  C  1117  1  0.67844400  0.71260600  0.22450500  1
  C  1121  1  0.67808300  0.28974100  0.83435500  1
  C  1122  1  0.67997300  0.26905100  0.81293100  1
  C  1123  1  0.68031100  0.23050500  0.81453200  1
  C  1124  1  0.67820400  0.21233100  0.83674800  1
  C  1125  1  0.67754600  0.23305800  0.85820300  1
  C  1127  1  0.67764500  0.27160600  0.85660900  1
  C  1129  1  0.67514200  0.21652100  0.88243500  1
  C  1133  1  0.67922900  0.28685700  0.78902700  1
  C  1137  1  0.91172500  0.71223400  0.33445200  1
  C  1138  1  0.90989100  0.73291400  0.31302300  1
  C  1139  1  0.90954100  0.77146200  0.31462500  1
  C  1140  1  0.91157900  0.78960500  0.33685600  1
  C  1141  1  0.91220700  0.76889500  0.35831500  1
  C  1143  1  0.91211900  0.73034500  0.35671600  1
  C  1145  1  0.91455700  0.78542800  0.38255000  1
  C  1149  1  0.91070100  0.71511300  0.28911700  1
  C  1153  1  0.50770900  0.62015600  0.58253400  1
  C  1154  1  0.52828100  0.62313900  0.56104000  1
  C  1155  1  0.56709400  0.62203700  0.56238100  1
  C  1156  1  0.58571300  0.61843100  0.58439400  1
  C  1157  1  0.56513300  0.61427600  0.60579700  1
  C  1159  1  0.52625400  0.61504400  0.60445100  1
  C  1161  1  0.58210500  0.61100700  0.62989100  1
  C  1165  1  0.51155700  0.62940400  0.53710600  1
  C  1169  1  0.08217800  0.38174000  0.08252700  1
  C  1170  1  0.06160000  0.37870000  0.06104000  1
  C  1171  1  0.02278900  0.37980400  0.06238300  1
  C  1172  1  0.00415900  0.38348100  0.08439100  1
  C  1173  1  0.02475700  0.38766900  0.10578600  1
  C  1175  1  0.06363600  0.38689800  0.10444000  1
  C  1177  1  0.00778900  0.39099000  0.12987700  1
  C  1181  1  0.07831900  0.37238200  0.03710800  1
  C  1185  1  0.08075300  0.61954100  0.93169300  1
  C  1186  1  0.06007800  0.62339600  0.95308700  1
  C  1187  1  0.02126500  0.62313900  0.95162000  1
  C  1188  1  0.00274500  0.61954100  0.92957100  1
  C  1189  1  0.02338500  0.61450300  0.90827500  1
  C  1191  1  0.06226200  0.61444800  0.90975300  1
  C  1193  1  0.00653800  0.61116200  0.88414800  1
  C  1197  1  0.07675300  0.62972100  0.97703000  1
  C  1201  1  0.50900900  0.38243400  0.43171400  1
  C  1202  1  0.52969100  0.37859100  0.45310400  1
  C  1203  1  0.56850400  0.37885600  0.45163300  1
  C  1204  1  0.58703000  0.38245600  0.42958400  1
  C  1205  1  0.56637200  0.38745900  0.40829000  1
  C  1207  1  0.52749600  0.38751000  0.40977000  1
  C  1209  1  0.58321500  0.39078000  0.38416200  1
  C  1213  1  0.51302200  0.37227600  0.47705000  1
  C  1217  1  0.24501100  0.01948100  0.02889200  1
  C  1218  1  0.24613400  0.03956400  0.00713700  1
  C  1219  1  0.24483300  0.02022900  0.98532200  1
  C  1220  1  0.24561800  0.98154900  0.98414900  1
  C  1221  1  0.24770500  0.96152800  0.00589600  1
  C  1223  1  0.24578500  0.98079700  0.02771300  1
  C  1225  1  0.25297600  0.92117600  0.00743400  1
  C  1229  1  0.24981200  0.08008500  0.00557700  1
  C  1233  1  0.34477500  0.98248700  0.52894300  1
  C  1234  1  0.34363200  0.96241100  0.50718500  1
  C  1235  1  0.34489600  0.98175700  0.48537100  1
  C  1236  1  0.34408600  0.02043700  0.48420700  1
  C  1237  1  0.34203100  0.04044900  0.50595800  1
  C  1239  1  0.34398700  0.02116900  0.52777000  1
  C  1241  1  0.33675700  0.08079800  0.50750600  1
  C  1245  1  0.33997100  0.92189000  0.50561900  1
  C  1249  1  0.27700000  0.95013700  0.27891600  1
  C  1250  1  0.25661900  0.95136700  0.25722300  1
  C  1251  1  0.27596700  0.95036900  0.23535100  1
  C  1252  1  0.31492900  0.95121400  0.23409600  1
  C  1253  1  0.33524800  0.95306400  0.25579200  1
  C  1255  1  0.31596500  0.95098100  0.27765000  1
  C  1257  1  0.37592000  0.95820600  0.25723600  1
  C  1261  1  0.21576600  0.95483000  0.25579000  1
  C  1265  1  0.31282800  0.05186700  0.77891500  1
  C  1266  1  0.33319800  0.05066400  0.75721500  1
  C  1267  1  0.31383300  0.05166700  0.73535000  1
  C  1268  1  0.27487100  0.05081400  0.73410400  1
  C  1269  1  0.25456600  0.04897100  0.75580500  1
  C  1271  1  0.27386200  0.05103800  0.77766000  1
  C  1273  1  0.21389100  0.04384500  0.75726200  1
  C  1277  1  0.37405000  0.04721600  0.75577100  1
  C  1281  1  0.83811200  0.98197800  0.98524500  1
  C  1282  1  0.83696900  0.96243300  0.00720900  1
  C  1283  1  0.83826900  0.98229300  0.02882500  1
  C  1284  1  0.83748900  0.02099900  0.02960500  1
  C  1285  1  0.83532700  0.04047800  0.00765200  1
  C  1287  1  0.83726900  0.02068500  0.98603600  1
  C  1289  1  0.83000300  0.08077800  0.00570000  1
  C  1293  1  0.83331400  0.92195300  0.00918500  1
  C  1297  1  0.75162200  0.01995700  0.48517800  1
  C  1298  1  0.75279300  0.03949800  0.50714400  1
  C  1299  1  0.75152900  0.01963300  0.52875700  1
  C  1300  1  0.75231400  0.98092900  0.52953400  1
  C  1301  1  0.75445400  0.96145400  0.50757700  1
  C  1303  1  0.75247600  0.98125100  0.48596400  1
  C  1305  1  0.75978000  0.92115400  0.50561900  1
  C  1309  1  0.75644500  0.07997700  0.50912100  1
  C  1313  1  0.81373100  0.05079300  0.73534500  1
  C  1314  1  0.83320400  0.04968900  0.75738700  1
  C  1315  1  0.81295200  0.05075500  0.77891500  1
  C  1316  1  0.77395100  0.04986300  0.77950700  1
  C  1317  1  0.75453600  0.04806200  0.75746700  1
  C  1319  1  0.77472200  0.05006900  0.73594800  1
  C  1321  1  0.71393300  0.04295100  0.75531500  1
  C  1325  1  0.87397800  0.04620100  0.75953900  1
  C  1329  1  0.77604400  0.95107400  0.23536200  1
  C  1330  1  0.75659100  0.95214300  0.25741300  1
  C  1331  1  0.77686200  0.95107700  0.27893200  1
  C  1332  1  0.81586600  0.95198700  0.27950800  1
  C  1333  1  0.83526100  0.95377800  0.25746100  1
  C  1335  1  0.81505300  0.95178200  0.23594900  1
  C  1337  1  0.87586200  0.95887600  0.25529200  1
  C  1341  1  0.71581700  0.95561200  0.25958100  1
  C  1345  1  0.74989300  0.52026800  0.52861100  1
  C  1346  1  0.75089800  0.53963900  0.50658100  1
  C  1347  1  0.74954800  0.51959800  0.48503700  1
  C  1348  1  0.75046300  0.48088700  0.48438600  1
  C  1349  1  0.75260300  0.46158200  0.50640300  1
  C  1351  1  0.75066100  0.48155100  0.52794900  1
  C  1353  1  0.75801800  0.42130900  0.50850400  1
  C  1357  1  0.75456100  0.58010000  0.50444900  1
  C  1361  1  0.83999600  0.48176200  0.02865700  1
  C  1362  1  0.83895500  0.46238800  0.00662700  1
  C  1363  1  0.84027100  0.48242600  0.98508300  1
  C  1364  1  0.83936500  0.52113700  0.98443100  1
  C  1365  1  0.83725000  0.54044500  0.00644800  1
  C  1367  1  0.83922700  0.52047900  0.02799400  1
  C  1369  1  0.83184600  0.58072000  0.00855200  1
  C  1373  1  0.83528100  0.42193000  0.00449700  1
  C  1377  1  0.77616800  0.45344100  0.77855100  1
  C  1378  1  0.75661800  0.45464700  0.75653900  1
  C  1379  1  0.77679400  0.45357200  0.73498400  1
  C  1380  1  0.81579400  0.45439800  0.73434500  1
  C  1381  1  0.83528300  0.45625900  0.75635700  1
  C  1383  1  0.81517200  0.45421700  0.77790100  1
  C  1385  1  0.87589000  0.46139900  0.75845200  1
  C  1389  1  0.71584100  0.45817800  0.75444900  1
  C  1393  1  0.81367300  0.54857800  0.27854300  1
  C  1394  1  0.83320700  0.54740800  0.25652400  1
  C  1395  1  0.81301500  0.54848800  0.23497400  1
  C  1396  1  0.77401700  0.54764600  0.23434800  1
  C  1397  1  0.75454200  0.54578100  0.25636500  1
  C  1399  1  0.77466700  0.54781000  0.27790400  1
  C  1401  1  0.71393500  0.54064800  0.25847100  1
  C  1405  1  0.87398600  0.54389800  0.25442100  1
  C  1409  1  0.34549100  0.48134100  0.48540500  1
  C  1410  1  0.34446900  0.46243500  0.50760900  1
  C  1411  1  0.34579600  0.48291500  0.52898000  1
  C  1412  1  0.34487600  0.52164000  0.52931600  1
  C  1413  1  0.34293500  0.54049200  0.50712000  1
  C  1415  1  0.34489600  0.52007400  0.48574800  1
  C  1417  1  0.33762700  0.58072900  0.50464700  1
  C  1421  1  0.34072000  0.42203100  0.51010400  1
  C  1425  1  0.24428800  0.52058200  0.98533400  1
  C  1426  1  0.24533900  0.53949700  0.00753500  1
  C  1427  1  0.24403600  0.51902200  0.02891000  1
  C  1428  1  0.24495900  0.48029600  0.02925000  1
  C  1429  1  0.24687400  0.46143700  0.00705800  1
  C  1431  1  0.24488700  0.48184900  0.98568200  1
  C  1433  1  0.25217700  0.42120000  0.00458700  1
  C  1437  1  0.24909500  0.57990000  0.01002300  1
  C  1441  1  0.31273700  0.54623800  0.23491200  1
  C  1442  1  0.33320400  0.54499700  0.25657400  1
  C  1443  1  0.31394900  0.54600800  0.27848200  1
  C  1444  1  0.27499200  0.54518500  0.27981000  1
  C  1445  1  0.25459500  0.54324700  0.25814600  1
  C  1447  1  0.27378000  0.54531700  0.23625100  1
  C  1449  1  0.21392400  0.53804800  0.25678300  1
  C  1453  1  0.37406100  0.54153600  0.25793000  1
  C  1457  1  0.27703900  0.45560300  0.73490400  1
  C  1458  1  0.25659300  0.45680300  0.75657500  1
  C  1459  1  0.27586800  0.45578400  0.77847600  1
  C  1460  1  0.31482500  0.45662600  0.77978700  1
  C  1461  1  0.33520300  0.45856400  0.75811800  1
  C  1463  1  0.31599800  0.45651100  0.73622800  1
  C  1465  1  0.37587300  0.46375200  0.75673900  1
  C  1469  1  0.21573500  0.46024200  0.75794900  1
  C  1473  1  0.27892500  0.02181800  0.11292800  1
  C  1474  1  0.31082500  0.03721400  0.12363900  1
  C  1475  1  0.32835900  0.01757900  0.14216400  1
  C  1476  1  0.31508300  0.98327100  0.14989800  1
  C  1477  1  0.28328000  0.96778000  0.13910600  1
  C  1479  1  0.26566300  0.98756600  0.12078200  1
  C  1481  1  0.26697400  0.93180500  0.14578600  1
  C  1485  1  0.32703400  0.07292800  0.11648100  1
  C  1489  1  0.31089700  0.98008700  0.61298400  1
  C  1490  1  0.27898900  0.96468500  0.62368200  1
  C  1491  1  0.26143900  0.98431600  0.64220500  1
  C  1492  1  0.27470600  0.01862200  0.64994700  1
  C  1493  1  0.30651800  0.03411700  0.63916900  1
  C  1495  1  0.32415300  0.01433600  0.62084800  1
  C  1497  1  0.32281200  0.07009300  0.64585300  1
  C  1501  1  0.26278200  0.92897500  0.61651100  1
  C  1505  1  0.27465500  0.98419000  0.36287800  1
  C  1506  1  0.25874600  0.01570900  0.37352100  1
  C  1507  1  0.27827800  0.03340800  0.39204000  1
  C  1508  1  0.31297400  0.02065500  0.39983400  1
  C  1509  1  0.32897600  0.98923400  0.38910800  1
  C  1511  1  0.30930800  0.97146500  0.37077800  1
  C  1513  1  0.36534600  0.97343300  0.39589500  1
  C  1517  1  0.22256700  0.03132400  0.36632700  1
  C  1521  1  0.31516600  0.01768800  0.86283800  1
  C  1522  1  0.33103100  0.98615800  0.87349700  1
  C  1523  1  0.31145300  0.96848200  0.89200500  1
  C  1524  1  0.27675800  0.98127000  0.89977600  1
  C  1525  1  0.26080200  0.01270400  0.88903500  1
  C  1527  1  0.28051700  0.03044900  0.87071600  1
  C  1529  1  0.22443800  0.02853900  0.89579800  1
  C  1533  1  0.36720800  0.97051100  0.86633100  1
  C  1537  1  0.80576600  0.97835400  0.90098600  1
  C  1538  1  0.77405000  0.96310500  0.88996100  1
  C  1539  1  0.75716400  0.98272500  0.87117500  1
  C  1540  1  0.77090800  0.01687300  0.86347900  1
  C  1541  1  0.80254900  0.03220000  0.87456800  1
  C  1543  1  0.81952600  0.01242100  0.89314600  1
  C  1545  1  0.81929200  0.06801700  0.86798200  1
  C  1549  1  0.75739500  0.92756500  0.89705200  1
  C  1553  1  0.78395200  0.02365300  0.40091600  1
  C  1554  1  0.81567600  0.03891800  0.38991200  1
  C  1555  1  0.83260300  0.01930700  0.37113800  1
  C  1556  1  0.81889000  0.98515500  0.36343000  1
  C  1557  1  0.78723500  0.96981400  0.37449600  1
  C  1559  1  0.77021600  0.98958300  0.39306100  1
  C  1561  1  0.77052500  0.93398600  0.36790100  1
  C  1565  1  0.83231100  0.07446000  0.39702300  1
  C  1569  1  0.81892800  0.01548100  0.65169100  1
  C  1570  1  0.83532700  0.98416500  0.64109800  1
  C  1571  1  0.81643900  0.96654400  0.62227000  1
  C  1572  1  0.78189400  0.97917100  0.61411800  1
  C  1573  1  0.76535500  0.01033400  0.62482800  1
  C  1575  1  0.78440100  0.02803800  0.64345600  1
  C  1577  1  0.72905600  0.02595900  0.61771000  1
  C  1581  1  0.87140300  0.96870900  0.64864800  1
  C  1585  1  0.77084200  0.98657100  0.15176100  1
  C  1586  1  0.75448700  0.01790000  0.14115700  1
  C  1587  1  0.77341700  0.03549900  0.12233600  1
  C  1588  1  0.80795800  0.02283400  0.11420200  1
  C  1589  1  0.82445400  0.99165800  0.12492400  1
  C  1591  1  0.80536900  0.97397700  0.14354400  1
  C  1593  1  0.86074400  0.97599700  0.11782700  1
  C  1597  1  0.71841400  0.03338800  0.14868200  1
  C  1601  1  0.78372300  0.52428700  0.61258300  1
  C  1602  1  0.81544700  0.53970400  0.62349800  1
  C  1603  1  0.83243800  0.52028200  0.64232600  1
  C  1604  1  0.81879100  0.48617100  0.65015700  1
  C  1605  1  0.78719400  0.47063300  0.63914400  1
  C  1607  1  0.77010300  0.49022200  0.62052800  1
  C  1609  1  0.77057400  0.43482200  0.64587400  1
  C  1613  1  0.83197800  0.57523900  0.61626800  1
  C  1617  1  0.80617600  0.47768300  0.11263300  1
  C  1618  1  0.77444700  0.46224300  0.12352600  1
  C  1619  1  0.75742000  0.48164700  0.14234900  1
  C  1620  1  0.77104000  0.51576000  0.15019700  1
  C  1621  1  0.80264500  0.53131800  0.13920600  1
  C  1623  1  0.81977100  0.51174700  0.12059600  1
  C  1625  1  0.81923400  0.56713700  0.14595100  1
  C  1629  1  0.75793500  0.42671100  0.11627400  1
  C  1633  1  0.77121900  0.48739300  0.86245800  1
  C  1634  1  0.75495200  0.51866300  0.87318800  1
  C  1635  1  0.77398100  0.53606600  0.89204100  1
  C  1636  1  0.80852600  0.52325600  0.90007200  1
  C  1637  1  0.82490500  0.49210300  0.88924800  1
  C  1639  1  0.80571600  0.47461000  0.87060000  1
  C  1641  1  0.86120100  0.47633000  0.89622600  1
  C  1645  1  0.71890700  0.53431400  0.86574900  1
  C  1649  1  0.81862500  0.51449200  0.36240900  1
  C  1650  1  0.83485600  0.48321600  0.37315500  1
  C  1651  1  0.81579400  0.46583800  0.39200200  1
  C  1652  1  0.78125300  0.47867800  0.40001600  1
  C  1653  1  0.76490600  0.50983400  0.38917500  1
  C  1655  1  0.78412800  0.52730200  0.37053200  1
  C  1657  1  0.72861300  0.52563700  0.39613100  1
  C  1661  1  0.87090400  0.46754400  0.36574300  1
  C  1665  1  0.31074600  0.47593100  0.40161000  1
  C  1666  1  0.27868300  0.46059200  0.39106900  1
  C  1667  1  0.26138700  0.47990000  0.37230400  1
  C  1668  1  0.27507200  0.51382500  0.36415500  1
  C  1669  1  0.30706900  0.52923500  0.37475300  1
  C  1671  1  0.32445100  0.50976500  0.39331200  1
  C  1673  1  0.32377000  0.56484900  0.36767200  1
  C  1677  1  0.26204500  0.42528700  0.39866700  1
  C  1681  1  0.27900500  0.52603100  0.90153000  1
  C  1682  1  0.31107100  0.54138600  0.89100700  1
  C  1683  1  0.32839500  0.52209100  0.87224600  1
  C  1684  1  0.31473600  0.48816400  0.86408600  1
  C  1685  1  0.28273200  0.47273800  0.87466600  1
  C  1687  1  0.26532000  0.49219600  0.89322000  1
  C  1689  1  0.26606000  0.43711300  0.86758000  1
  C  1693  1  0.32769300  0.57669100  0.89861900  1
  C  1697  1  0.31489600  0.51273100  0.15081300  1
  C  1698  1  0.33114400  0.48168800  0.13978800  1
  C  1699  1  0.31181400  0.46431000  0.12105300  1
  C  1700  1  0.27698600  0.47691200  0.11340700  1
  C  1701  1  0.26059800  0.50779700  0.12455200  1
  C  1703  1  0.28007700  0.52526000  0.14309000  1
  C  1705  1  0.22402900  0.52336300  0.11798500  1
  C  1709  1  0.36750600  0.46627600  0.14678400  1
  C  1713  1  0.27487100  0.48933400  0.65085900  1
  C  1714  1  0.25865900  0.52039100  0.63982500  1
  C  1715  1  0.27802700  0.53775800  0.62110300  1
  C  1716  1  0.31285800  0.52513100  0.61347500  1
  C  1717  1  0.32921000  0.49423800  0.62463200  1
  C  1719  1  0.30969300  0.47678400  0.64315600  1
  C  1721  1  0.36577900  0.47864800  0.61808500  1
  C  1725  1  0.22229500  0.53582000  0.64679700  1
  N  17  1  0.22550700  0.07911900  0.12138800  1
  N  18  1  0.23038500  0.15385200  0.07927300  1
  N  39  1  0.36432200  0.92278100  0.62141900  1
  N  40  1  0.35951000  0.84807300  0.57926600  1
  N  61  1  0.21757400  0.93058300  0.37155800  1
  N  62  1  0.14208300  0.93459300  0.32954200  1
  N  83  1  0.37223200  0.07130300  0.87156900  1
  N  84  1  0.44772900  0.06737300  0.82955400  1
  N  105  1  0.36314000  0.08072800  0.39187600  1
  N  106  1  0.35832300  0.15604800  0.43409500  1
  N  127  1  0.22657400  0.92120600  0.89183200  1
  N  128  1  0.23138500  0.84592100  0.93404500  1
  N  149  1  0.37507400  0.93304000  0.14155300  1
  N  150  1  0.45125500  0.93614000  0.18356900  1
  N  171  1  0.21473000  0.06887100  0.64155800  1
  N  172  1  0.13855300  0.06584300  0.68358300  1
  N  193  1  0.85903300  0.92068700  0.89333300  1
  N  194  1  0.85358500  0.84654700  0.93560000  1
  N  215  1  0.73067300  0.08132300  0.39328700  1
  N  216  1  0.73612100  0.15542400  0.43556700  1
  N  237  1  0.87611300  0.06907200  0.64342200  1
  N  238  1  0.95078100  0.06578000  0.68455200  1
  N  259  1  0.71367900  0.93297800  0.14342400  1
  N  260  1  0.63899400  0.93614000  0.18453100  1
  N  281  1  0.73197000  0.91869100  0.62120300  1
  N  282  1  0.73716200  0.84407600  0.57879700  1
  N  303  1  0.85791500  0.08329900  0.12125100  1
  N  304  1  0.85269000  0.15786900  0.07884100  1
  N  325  1  0.71082600  0.06712600  0.87127800  1
  N  326  1  0.63557600  0.06453700  0.83011400  1
  N  347  1  0.87897400  0.93490500  0.37129200  1
  N  348  1  0.95424900  0.93738700  0.33014600  1
  N  369  1  0.73062400  0.58196100  0.62055300  1
  N  370  1  0.73598900  0.65610700  0.57931100  1
  N  391  1  0.85927600  0.41999500  0.12058000  1
  N  392  1  0.85386100  0.34589900  0.07932200  1
  N  413  1  0.71382500  0.43389500  0.87038100  1
  N  414  1  0.63951200  0.43875000  0.82860800  1
  N  435  1  0.87599100  0.56800600  0.37038500  1
  N  436  1  0.95031000  0.56323300  0.32861100  1
  N  457  1  0.85821800  0.58381800  0.89275600  1
  N  458  1  0.85273200  0.65835900  0.93417200  1
  N  479  1  0.73154100  0.41811700  0.39274100  1
  N  480  1  0.73704100  0.34362200  0.43417700  1
  N  501  1  0.87905400  0.43600600  0.64269900  1
  N  502  1  0.95387700  0.43991200  0.68453900  1
  N  523  1  0.71077100  0.56592600  0.14269600  1
  N  524  1  0.63593700  0.56206900  0.18454600  1
  N  545  1  0.36349500  0.41787600  0.39384400  1
  N  546  1  0.35879900  0.34412200  0.43449100  1
  N  567  1  0.22625000  0.58409100  0.89378800  1
  N  568  1  0.23097500  0.65781500  0.93444200  1
  N  589  1  0.37172200  0.56661500  0.14221900  1
  N  590  1  0.44738800  0.56200300  0.18336100  1
  N  611  1  0.21806500  0.43545100  0.64219200  1
  N  612  1  0.14238800  0.43991800  0.68331500  1
  N  633  1  0.22754500  0.41611600  0.12062500  1
  N  634  1  0.23198200  0.34189100  0.07980000  1
  N  655  1  0.36231100  0.58593100  0.62065700  1
  N  656  1  0.35793400  0.66011700  0.57981100  1
  N  677  1  0.21523800  0.56423400  0.37239100  1
  N  678  1  0.13891100  0.56037100  0.33130000  1
  N  699  1  0.37457600  0.43776900  0.87238100  1
  N  700  1  0.45091900  0.44153000  0.83130000  1
