# generated using pymatgen
data_H13C20N2O3
_symmetry_space_group_name_H-M   'P 1'
_cell_length_a   28.89190000
_cell_length_b   78.53660000
_cell_length_c   78.53660000
_cell_angle_alpha   90.00000000
_cell_angle_beta   90.00000000
_cell_angle_gamma   90.00000000
_symmetry_Int_Tables_number   1
_chemical_formula_structural   H13C20N2O3
_chemical_formula_sum   'H832 C1280 N128 O192'
_cell_volume   178205.16811321
_cell_formula_units_Z   64
loop_
 _symmetry_equiv_pos_site_id
 _symmetry_equiv_pos_as_xyz
  1  'x, y, z'
loop_
 _atom_site_type_symbol
 _atom_site_label
 _atom_site_symmetry_multiplicity
 _atom_site_fract_x
 _atom_site_fract_y
 _atom_site_fract_z
 _atom_site_occupancy
  H  7  1  0.29901500  0.06066600  0.00379300  1
  H  8  1  0.38665100  0.08570300  0.96940800  1
  H  15  1  0.12589300  0.07950100  0.03439500  1
  H  16  1  0.24630700  0.10550000  0.01968800  1
  H  19  1  0.26751700  0.12157600  0.99057300  1
  H  20  1  0.21818600  0.04723500  0.99660700  1
  H  22  1  0.15985200  0.10244400  0.05109000  1
  H  24  1  0.12810000  0.04818300  0.02361100  1
  H  26  1  0.38881500  0.05387000  0.97614000  1
  H  28  1  0.36924900  0.11704000  0.96667900  1
  H  35  1  0.79908900  0.43862700  0.99550500  1
  H  36  1  0.88668100  0.41357000  0.02989300  1
  H  43  1  0.62592600  0.41981800  0.96490700  1
  H  44  1  0.74630900  0.39379600  0.97961500  1
  H  47  1  0.76749500  0.37772100  0.00872900  1
  H  48  1  0.71828100  0.45207200  0.00269100  1
  H  50  1  0.65982100  0.39686000  0.94821500  1
  H  52  1  0.62820300  0.45113200  0.97567900  1
  H  54  1  0.88883300  0.44541400  0.02316300  1
  H  56  1  0.86922900  0.38223300  0.03261300  1
  H  63  1  0.54896000  0.24552000  0.81094000  1
  H  64  1  0.63654100  0.27992700  0.83597100  1
  H  71  1  0.37590800  0.21488300  0.82973000  1
  H  72  1  0.49625000  0.22962000  0.85575900  1
  H  75  1  0.51740400  0.25875300  0.87184100  1
  H  76  1  0.46814500  0.25271900  0.79750100  1
  H  78  1  0.40991400  0.19818800  0.85264800  1
  H  80  1  0.37812000  0.22569000  0.79841800  1
  H  82  1  0.63872900  0.27317800  0.80413900  1
  H  84  1  0.61912100  0.28267000  0.86730300  1
  H  91  1  0.04901100  0.25379400  0.18835600  1
  H  92  1  0.13656800  0.21938800  0.16331000  1
  H  99  1  0.87592700  0.28442300  0.16959500  1
  H  100  1  0.99624400  0.26969300  0.14354100  1
  H  103  1  0.01738800  0.24056000  0.12745500  1
  H  104  1  0.96822200  0.24658300  0.20180100  1
  H  106  1  0.90985700  0.30112700  0.14665400  1
  H  108  1  0.87820400  0.27362000  0.20089900  1
  H  110  1  0.13872400  0.22613000  0.19515100  1
  H  112  1  0.11911400  0.21665400  0.13197700  1
  H  119  1  0.70153900  0.93790400  0.99518200  1
  H  120  1  0.60884200  0.91162300  0.02678000  1
  H  127  1  0.87913900  0.91797600  0.96732200  1
  H  128  1  0.75627400  0.89279000  0.98018500  1
  H  131  1  0.73330600  0.87688400  0.00886600  1
  H  132  1  0.78064100  0.95192100  0.00092500  1
  H  134  1  0.84596300  0.89538000  0.95011600  1
  H  136  1  0.88176900  0.94773400  0.97621900  1
  H  138  1  0.59937900  0.94133300  0.01997500  1
  H  140  1  0.62852500  0.88073700  0.03078200  1
  H  147  1  0.20149500  0.56139200  0.00410800  1
  H  148  1  0.10885100  0.58769000  0.97250200  1
  H  155  1  0.37908900  0.58130500  0.03199600  1
  H  156  1  0.25624900  0.60650500  0.01911900  1
  H  159  1  0.23331400  0.62241600  0.99044300  1
  H  160  1  0.28058100  0.54737400  0.99837000  1
  H  162  1  0.34596600  0.60391900  0.04919600  1
  H  164  1  0.38169900  0.55154500  0.02309800  1
  H  166  1  0.09937300  0.55797400  0.97930000  1
  H  168  1  0.12855800  0.61858000  0.96852200  1
  H  175  1  0.45050700  0.75382600  0.18874000  1
  H  176  1  0.36265900  0.71951000  0.16371000  1
  H  183  1  0.62353800  0.78447400  0.16971200  1
  H  184  1  0.50305100  0.76970700  0.14380000  1
  H  187  1  0.48149100  0.74071500  0.12776000  1
  H  188  1  0.53138400  0.74675800  0.20212500  1
  H  190  1  0.58920600  0.80113900  0.14670500  1
  H  192  1  0.62142300  0.77373700  0.20108000  1
  H  194  1  0.36073100  0.72618900  0.19557100  1
  H  196  1  0.37977800  0.71685700  0.13236400  1
  H  203  1  0.95044900  0.74546000  0.81056500  1
  H  204  1  0.86263200  0.77977700  0.83560800  1
  H  211  1  0.12353100  0.71482600  0.82957100  1
  H  212  1  0.00307000  0.72958900  0.85550700  1
  H  215  1  0.98150300  0.75857900  0.87154400  1
  H  216  1  0.03130000  0.75253200  0.79717000  1
  H  218  1  0.08925800  0.69816200  0.85259400  1
  H  220  1  0.12134100  0.72555000  0.79820800  1
  H  222  1  0.86073600  0.77310200  0.80373600  1
  H  224  1  0.87977900  0.78242400  0.86695300  1
  H  231  1  0.79875300  0.56058800  0.50383000  1
  H  232  1  0.88659100  0.58563100  0.46952000  1
  H  239  1  0.62567700  0.57962500  0.53446400  1
  H  240  1  0.74618100  0.60552900  0.51970000  1
  H  243  1  0.76771700  0.62156600  0.49071100  1
  H  244  1  0.71786200  0.54719800  0.49676300  1
  H  246  1  0.66006000  0.60263100  0.55112100  1
  H  248  1  0.62782600  0.54824100  0.52372500  1
  H  250  1  0.88851900  0.55376400  0.47620000  1
  H  252  1  0.86943400  0.61697500  0.46686600  1
  H  259  1  0.29882100  0.93870600  0.49546800  1
  H  260  1  0.38661700  0.91364200  0.52977900  1
  H  267  1  0.12572500  0.91970000  0.46482800  1
  H  268  1  0.24620400  0.89377400  0.47959000  1
  H  271  1  0.26769600  0.87773000  0.50858200  1
  H  272  1  0.21794400  0.95210400  0.50254200  1
  H  274  1  0.16003500  0.89667300  0.44816600  1
  H  276  1  0.12792000  0.95107300  0.47556400  1
  H  278  1  0.38853100  0.94552100  0.52310300  1
  H  280  1  0.36941500  0.88230000  0.53242200  1
  H  287  1  0.04774100  0.74518400  0.31142600  1
  H  288  1  0.14042800  0.77677200  0.33772500  1
  H  295  1  0.87010900  0.71733200  0.33135100  1
  H  296  1  0.99298700  0.73018800  0.35653300  1
  H  299  1  0.01591800  0.75886400  0.37244400  1
  H  300  1  0.96863100  0.75092800  0.29740300  1
  H  302  1  0.90329400  0.70012800  0.35395600  1
  H  304  1  0.86748500  0.72623100  0.30158800  1
  H  306  1  0.14990100  0.76997400  0.30801200  1
  H  308  1  0.12070100  0.78077100  0.36861200  1
  H  315  1  0.54776900  0.75411700  0.68787800  1
  H  316  1  0.64041800  0.72252600  0.66156400  1
  H  323  1  0.37013500  0.78198700  0.66796900  1
  H  324  1  0.49298600  0.76912300  0.64276800  1
  H  327  1  0.51591300  0.74045500  0.62685400  1
  H  328  1  0.46868100  0.74837600  0.70190100  1
  H  330  1  0.40326500  0.79918800  0.64534500  1
  H  332  1  0.36754200  0.77308700  0.69773300  1
  H  334  1  0.64989500  0.72931500  0.69128300  1
  H  336  1  0.62067900  0.71854900  0.63067500  1
  H  343  1  0.20173500  0.43797400  0.49513200  1
  H  344  1  0.10882800  0.41167400  0.52663100  1
  H  351  1  0.37930700  0.41790500  0.46725000  1
  H  352  1  0.25639300  0.39277200  0.48013900  1
  H  355  1  0.23309000  0.37688300  0.50868900  1
  H  356  1  0.28086600  0.45195100  0.50078400  1
  H  358  1  0.34578900  0.39522200  0.45005400  1
  H  360  1  0.38198200  0.44770200  0.47612300  1
  H  362  1  0.09956700  0.44141700  0.51990400  1
  H  364  1  0.12829000  0.38076900  0.53053600  1
  H  371  1  0.70168800  0.06132300  0.50415900  1
  H  372  1  0.60883500  0.08764100  0.47265200  1
  H  379  1  0.87926000  0.08137600  0.53206500  1
  H  380  1  0.75637800  0.10652400  0.51916200  1
  H  383  1  0.73310500  0.12241700  0.49061700  1
  H  384  1  0.78080000  0.04734100  0.49851500  1
  H  386  1  0.84578300  0.10407200  0.54925200  1
  H  388  1  0.88190800  0.05157600  0.52319400  1
  H  390  1  0.59955500  0.05789200  0.47937100  1
  H  392  1  0.62832800  0.11854900  0.46876900  1
  H  399  1  0.95166100  0.25416400  0.68824100  1
  H  400  1  0.85874900  0.22267800  0.66192700  1
  H  407  1  0.12928500  0.28203300  0.66811700  1
  H  408  1  0.00630700  0.26915000  0.64302500  1
  H  411  1  0.98302600  0.24061100  0.62714600  1
  H  412  1  0.03083700  0.24854400  0.70221400  1
  H  414  1  0.09575100  0.29920800  0.64542500  1
  H  416  1  0.13199500  0.27318600  0.69792100  1
  H  418  1  0.84945900  0.22940000  0.69166700  1
  H  420  1  0.87822200  0.21878600  0.63101900  1
  H  427  1  0.45162800  0.24513500  0.31105800  1
  H  428  1  0.35875100  0.27662400  0.33738500  1
  H  435  1  0.62925200  0.21724900  0.33116400  1
  H  436  1  0.50630400  0.23014000  0.35627300  1
  H  439  1  0.48302800  0.25867100  0.37215600  1
  H  440  1  0.53078200  0.25075400  0.29708300  1
  H  442  1  0.59577600  0.20007500  0.35387500  1
  H  444  1  0.63193100  0.22609500  0.30135900  1
  H  446  1  0.34945800  0.26991100  0.30763900  1
  H  448  1  0.37823700  0.28049300  0.36829700  1
  H  455  1  0.06983200  0.99556000  0.01054200  1
  H  456  1  0.12130500  0.01917400  0.01029600  1
  H  463  1  0.94850100  0.99908500  0.97670500  1
  H  464  1  0.89641700  0.97594300  0.97745700  1
  H  465  1  0.95096900  0.96080900  0.02506000  1
  H  466  1  0.01659400  0.04995600  0.98885100  1
  H  467  1  0.00080600  0.98476000  0.02483800  1
  H  468  1  0.96440500  0.02652000  0.98969900  1
  H  479  1  0.56982700  0.50374700  0.98875200  1
  H  480  1  0.62131900  0.48013800  0.98899000  1
  H  487  1  0.44852300  0.50020600  0.02260100  1
  H  488  1  0.39640200  0.52333700  0.02185400  1
  H  489  1  0.45090500  0.53848300  0.97424700  1
  H  490  1  0.51664300  0.44934500  0.01044200  1
  H  491  1  0.50078000  0.51454200  0.97446400  1
  H  492  1  0.46444100  0.47277500  0.00960300  1
  H  503  1  0.31995100  0.23880800  0.74578200  1
  H  504  1  0.37136300  0.23903000  0.76941600  1
  H  511  1  0.19863900  0.27264600  0.74930400  1
  H  512  1  0.14660000  0.27192500  0.72614600  1
  H  513  1  0.20112900  0.22433000  0.71097900  1
  H  514  1  0.26655400  0.26042500  0.80018800  1
  H  515  1  0.25093000  0.22452200  0.73494300  1
  H  516  1  0.21442900  0.25960300  0.77673100  1
  H  527  1  0.81994200  0.26049000  0.25352400  1
  H  528  1  0.87136800  0.26027600  0.22989500  1
  H  535  1  0.69864500  0.22664700  0.24998300  1
  H  536  1  0.64657200  0.22736400  0.27313100  1
  H  537  1  0.70106500  0.27496100  0.28831100  1
  H  538  1  0.76658800  0.23888400  0.19911000  1
  H  539  1  0.75090200  0.27477100  0.26435800  1
  H  540  1  0.71444900  0.23969700  0.22256100  1
  H  551  1  0.93674000  0.50098100  0.01679800  1
  H  552  1  0.88654900  0.47699300  0.01591700  1
  H  559  1  0.03448400  0.50630400  0.97409500  1
  H  560  1  0.08613700  0.52961000  0.97541300  1
  H  561  1  0.06207900  0.53386200  0.02834000  1
  H  562  1  0.97603800  0.45283200  0.98093100  1
  H  563  1  0.01283500  0.50977400  0.02717600  1
  H  564  1  0.02734500  0.47652100  0.98232300  1
  H  575  1  0.43674900  0.99830700  0.98249600  1
  H  576  1  0.38651300  0.02228100  0.98338200  1
  H  583  1  0.53451300  0.99300200  0.02519400  1
  H  584  1  0.58619900  0.96970500  0.02387300  1
  H  585  1  0.56214000  0.96545700  0.97094500  1
  H  586  1  0.47596400  0.04646200  0.01836600  1
  H  587  1  0.51286300  0.98953600  0.97211300  1
  H  588  1  0.52732100  0.02278700  0.01696900  1
  H  599  1  0.68667700  0.26679000  0.74858100  1
  H  600  1  0.63640000  0.26589500  0.77254400  1
  H  607  1  0.78463500  0.22415200  0.74333500  1
  H  608  1  0.83638300  0.22549200  0.72005500  1
  H  609  1  0.81213000  0.27840500  0.71577800  1
  H  610  1  0.72597100  0.23098900  0.79677900  1
  H  611  1  0.76278400  0.27722100  0.73984000  1
  H  612  1  0.77736300  0.23239700  0.77311600  1
  H  623  1  0.18665900  0.23252200  0.25071000  1
  H  624  1  0.13641700  0.23341900  0.22673600  1
  H  631  1  0.28462700  0.27515700  0.25597100  1
  H  632  1  0.33635000  0.27381500  0.27925700  1
  H  633  1  0.31207500  0.22090200  0.28353300  1
  H  634  1  0.22603300  0.26832000  0.20251700  1
  H  635  1  0.26275200  0.22208900  0.25946500  1
  H  636  1  0.27739100  0.26691100  0.22619000  1
  H  647  1  0.67948400  0.76059600  0.25374000  1
  H  648  1  0.62808200  0.76038400  0.23010400  1
  H  655  1  0.80083300  0.72676100  0.25022000  1
  H  656  1  0.85288200  0.72749300  0.27337300  1
  H  657  1  0.79827500  0.77507600  0.28854400  1
  H  658  1  0.73286600  0.73896100  0.19934000  1
  H  659  1  0.74847600  0.77487400  0.26458200  1
  H  660  1  0.78499100  0.73978000  0.22279700  1
  H  671  1  0.17949300  0.73870200  0.74555400  1
  H  672  1  0.12807500  0.73890500  0.76918700  1
  H  679  1  0.30082100  0.77254600  0.74909300  1
  H  680  1  0.35290200  0.77181600  0.72594800  1
  H  681  1  0.29833800  0.72423200  0.71076400  1
  H  682  1  0.23282800  0.76032800  0.79996300  1
  H  683  1  0.24850200  0.72442900  0.73471600  1
  H  684  1  0.28496600  0.75951900  0.77651200  1
  H  695  1  0.31271200  0.73258100  0.25112100  1
  H  696  1  0.36301500  0.73348400  0.22716500  1
  H  703  1  0.21468200  0.77519800  0.25633500  1
  H  704  1  0.16296100  0.77386200  0.27962300  1
  H  705  1  0.18729600  0.72095600  0.28393100  1
  H  706  1  0.27339000  0.76835100  0.20290200  1
  H  707  1  0.23661700  0.72213600  0.25986200  1
  H  708  1  0.22197300  0.76693700  0.22655800  1
  H  719  1  0.81272900  0.76670400  0.74818800  1
  H  720  1  0.86299900  0.76580100  0.77215300  1
  H  727  1  0.71468100  0.72409300  0.74296100  1
  H  728  1  0.66298100  0.72543300  0.71966700  1
  H  729  1  0.68735200  0.77833500  0.71535700  1
  H  730  1  0.77332400  0.73094100  0.79640200  1
  H  731  1  0.73665300  0.77715400  0.73943200  1
  H  732  1  0.72193900  0.73235700  0.77273700  1
  H  743  1  0.56983100  0.49558700  0.51051500  1
  H  744  1  0.62119500  0.51923600  0.51032600  1
  H  751  1  0.44845800  0.49911900  0.47670800  1
  H  752  1  0.39648500  0.47593700  0.47741300  1
  H  753  1  0.45113300  0.46073900  0.52498100  1
  H  754  1  0.51631400  0.55001000  0.48898400  1
  H  755  1  0.50086300  0.48472100  0.52480500  1
  H  756  1  0.46423000  0.52653800  0.48977700  1
  H  767  1  0.06982500  0.00371800  0.48878200  1
  H  768  1  0.12120300  0.98007400  0.48896300  1
  H  775  1  0.94847600  0.00017000  0.52260100  1
  H  776  1  0.89646500  0.02334000  0.52189900  1
  H  777  1  0.95106200  0.03854900  0.47432800  1
  H  778  1  0.01635800  0.94928700  0.51031100  1
  H  779  1  0.00083400  0.01457900  0.47450000  1
  H  780  1  0.96425900  0.97275400  0.50952700  1
  H  791  1  0.43662400  0.00104800  0.51666000  1
  H  792  1  0.38628800  0.97710300  0.51574700  1
  H  799  1  0.53489400  0.00620100  0.47412200  1
  H  800  1  0.58662800  0.02948500  0.47548000  1
  H  801  1  0.56204300  0.03382200  0.52836900  1
  H  802  1  0.47608500  0.95277500  0.48098200  1
  H  803  1  0.51270100  0.00975900  0.52716800  1
  H  804  1  0.52753200  0.97642300  0.48241000  1
  H  815  1  0.93664300  0.49823900  0.48263400  1
  H  816  1  0.88625800  0.52217200  0.48355200  1
  H  823  1  0.03492700  0.49310800  0.52516800  1
  H  824  1  0.08669100  0.46983200  0.52380600  1
  H  825  1  0.06210700  0.46549800  0.47091800  1
  H  826  1  0.97601700  0.54652000  0.51831500  1
  H  827  1  0.01273400  0.48955100  0.47212100  1
  H  828  1  0.02750900  0.52288600  0.51688400  1
  H  839  1  0.40774700  0.15482000  0.88984000  1
  H  840  1  0.43523600  0.17636400  0.87112000  1
  H  847  1  0.39046200  0.16854300  0.94230500  1
  H  848  1  0.36161000  0.14683000  0.96060200  1
  H  849  1  0.29964100  0.12240500  0.91840900  1
  H  850  1  0.38448800  0.21416600  0.90458000  1
  H  851  1  0.32755500  0.14436700  0.90019600  1
  H  852  1  0.35739100  0.19257100  0.92336100  1
  H  863  1  0.90774200  0.34448400  0.10945700  1
  H  864  1  0.93525500  0.32294500  0.12817700  1
  H  871  1  0.89033900  0.33073900  0.05700600  1
  H  872  1  0.86152800  0.35245900  0.03870900  1
  H  873  1  0.79967000  0.37691700  0.08090500  1
  H  874  1  0.88437500  0.28513300  0.09475500  1
  H  875  1  0.82754300  0.35494900  0.09911800  1
  H  876  1  0.85725700  0.30672500  0.07597100  1
  H  887  1  0.65762700  0.35959300  0.90491100  1
  H  888  1  0.68515400  0.37835600  0.92641000  1
  H  895  1  0.64038300  0.30715400  0.91874800  1
  H  896  1  0.61151000  0.28880900  0.89707900  1
  H  897  1  0.54950000  0.33094900  0.87257400  1
  H  898  1  0.63448900  0.34497000  0.96429200  1
  H  899  1  0.57743500  0.34920800  0.89449300  1
  H  900  1  0.60735300  0.32614500  0.94274300  1
  H  911  1  0.15763300  0.13971800  0.09438900  1
  H  912  1  0.18515000  0.12095400  0.07288800  1
  H  919  1  0.14031900  0.19215500  0.08054400  1
  H  920  1  0.11147100  0.21049700  0.10221900  1
  H  921  1  0.04955600  0.16835200  0.12674600  1
  H  922  1  0.13442300  0.15433100  0.03500900  1
  H  923  1  0.07746000  0.15009400  0.10482200  1
  H  924  1  0.10729300  0.17315600  0.05656000  1
  H  935  1  0.58913000  0.84417900  0.10898700  1
  H  936  1  0.56273900  0.82266900  0.12795400  1
  H  943  1  0.60841600  0.82979400  0.05662800  1
  H  944  1  0.63646500  0.85143200  0.03809800  1
  H  945  1  0.69498700  0.87718300  0.08017200  1
  H  946  1  0.61567700  0.78483900  0.09499500  1
  H  947  1  0.66805500  0.85527900  0.09860600  1
  H  948  1  0.64182000  0.80639500  0.07598500  1
  H  959  1  0.08918100  0.65512500  0.89031400  1
  H  960  1  0.06276100  0.67663100  0.87134800  1
  H  967  1  0.10850400  0.66951700  0.94266600  1
  H  968  1  0.13652100  0.64787100  0.96119700  1
  H  969  1  0.19499900  0.62211000  0.91912100  1
  H  970  1  0.11573000  0.71446600  0.90429400  1
  H  971  1  0.16810400  0.64402200  0.90068700  1
  H  972  1  0.14190000  0.69291400  0.92330300  1
  H  983  1  0.34382900  0.64015100  0.09332900  1
  H  984  1  0.31752400  0.62157500  0.07146000  1
  H  991  1  0.35846000  0.69308100  0.08056200  1
  H  992  1  0.38689000  0.71112600  0.10255200  1
  H  993  1  0.45045100  0.66879900  0.12618100  1
  H  994  1  0.36545500  0.65620900  0.03423100  1
  H  995  1  0.42304200  0.65085700  0.10392900  1
  H  996  1  0.39155600  0.67482800  0.05615500  1
  H  1007  1  0.84386900  0.85914600  0.90598000  1
  H  1008  1  0.81757800  0.87772000  0.92785400  1
  H  1015  1  0.85851700  0.80621300  0.91874400  1
  H  1016  1  0.88691600  0.78817100  0.89674600  1
  H  1017  1  0.95041800  0.83050200  0.87310500  1
  H  1018  1  0.86550900  0.84307700  0.96507500  1
  H  1019  1  0.92305100  0.84844000  0.89536600  1
  H  1020  1  0.89160200  0.82446000  0.94314600  1
  H  1031  1  0.90550300  0.65601800  0.39021300  1
  H  1032  1  0.93180100  0.67788900  0.37163700  1
  H  1039  1  0.89066800  0.66879100  0.44312600  1
  H  1040  1  0.86222400  0.64679300  0.46116000  1
  H  1041  1  0.79882200  0.62315000  0.41880700  1
  H  1042  1  0.88365900  0.71511500  0.40623500  1
  H  1043  1  0.82624500  0.64541000  0.40087700  1
  H  1044  1  0.85755800  0.69318900  0.42485400  1
  H  1055  1  0.40550400  0.84328800  0.60908000  1
  H  1056  1  0.43183400  0.82142200  0.62765600  1
  H  1063  1  0.39055200  0.83049200  0.55617900  1
  H  1064  1  0.36214600  0.85249400  0.53814500  1
  H  1065  1  0.29885400  0.87617000  0.58050100  1
  H  1066  1  0.38357400  0.78418500  0.59309200  1
  H  1067  1  0.32623800  0.85390400  0.59843300  1
  H  1068  1  0.35744300  0.80610600  0.57447100  1
  H  1079  1  0.16024400  0.85892400  0.40515500  1
  H  1080  1  0.18666100  0.87789400  0.42666000  1
  H  1087  1  0.14069500  0.80659700  0.41956600  1
  H  1088  1  0.11263900  0.78807200  0.39792300  1
  H  1089  1  0.05432200  0.83016500  0.37213900  1
  H  1090  1  0.13344400  0.84500200  0.46449700  1
  H  1091  1  0.08126000  0.84859400  0.39404700  1
  H  1092  1  0.10727500  0.82599100  0.44294600  1
  H  1103  1  0.66020200  0.64038200  0.59413500  1
  H  1104  1  0.68661400  0.62141500  0.57262600  1
  H  1111  1  0.64066000  0.69271500  0.57973100  1
  H  1112  1  0.61262100  0.71123700  0.60138000  1
  H  1113  1  0.55433900  0.66914000  0.62716600  1
  H  1114  1  0.63343300  0.65432200  0.53479700  1
  H  1115  1  0.58124900  0.65071500  0.60525000  1
  H  1116  1  0.60726300  0.67332800  0.55635000  1
  H  1127  1  0.09137500  0.34298000  0.60861700  1
  H  1128  1  0.06618800  0.32115000  0.62744300  1
  H  1135  1  0.10821100  0.32951300  0.55578800  1
  H  1136  1  0.13583000  0.35143200  0.53751100  1
  H  1137  1  0.19573000  0.37644400  0.57977100  1
  H  1138  1  0.11652000  0.28386600  0.59333600  1
  H  1139  1  0.16932600  0.35424300  0.59793100  1
  H  1140  1  0.14166000  0.30574800  0.57448900  1
  H  1151  1  0.59138000  0.15631400  0.39068900  1
  H  1152  1  0.56616200  0.17813900  0.37186400  1
  H  1159  1  0.60831600  0.16980000  0.44350500  1
  H  1160  1  0.63590500  0.14787500  0.46178200  1
  H  1161  1  0.69572100  0.12284100  0.41952000  1
  H  1162  1  0.61659100  0.21543200  0.40593800  1
  H  1163  1  0.66934600  0.14504700  0.40135800  1
  H  1164  1  0.64176100  0.19355600  0.42478700  1
  H  1175  1  0.84129800  0.14080400  0.59307300  1
  H  1176  1  0.81611100  0.12202000  0.57120800  1
  H  1183  1  0.85825700  0.19364200  0.57969900  1
  H  1184  1  0.88584000  0.21187400  0.60166400  1
  H  1185  1  0.94565600  0.16956200  0.62661100  1
  H  1186  1  0.86662700  0.15616000  0.53398900  1
  H  1187  1  0.91928500  0.15144500  0.60436700  1
  H  1188  1  0.89176200  0.17496800  0.55590800  1
  H  1199  1  0.34132000  0.35848600  0.40623500  1
  H  1200  1  0.31614500  0.37727000  0.42810200  1
  H  1207  1  0.35831100  0.30564700  0.41960800  1
  H  1208  1  0.38586600  0.28741800  0.39763800  1
  H  1209  1  0.44563000  0.32973400  0.37268100  1
  H  1210  1  0.36668700  0.34313100  0.46531600  1
  H  1211  1  0.41929000  0.34784800  0.39493200  1
  H  1212  1  0.39181200  0.32432300  0.44339600  1
  H  1223  1  0.29901500  0.06066600  0.18205400  1
  H  1224  1  0.38665100  0.08570300  0.14766900  1
  H  1231  1  0.12589300  0.07950100  0.21265600  1
  H  1232  1  0.24630700  0.10550000  0.19794900  1
  H  1235  1  0.26751700  0.12157600  0.16883400  1
  H  1236  1  0.21818600  0.04723500  0.17486800  1
  H  1238  1  0.15985200  0.10244400  0.22935100  1
  H  1240  1  0.12810000  0.04818300  0.20187200  1
  H  1242  1  0.38881500  0.05387000  0.15440100  1
  H  1244  1  0.36924900  0.11704000  0.14494000  1
  H  1251  1  0.79908900  0.43862700  0.17376600  1
  H  1252  1  0.88668100  0.41357000  0.20815400  1
  H  1259  1  0.62592600  0.41981800  0.14316800  1
  H  1260  1  0.74630900  0.39379600  0.15787600  1
  H  1263  1  0.76749500  0.37772100  0.18699000  1
  H  1264  1  0.71828100  0.45207200  0.18095200  1
  H  1266  1  0.65982100  0.39686000  0.12647600  1
  H  1268  1  0.62820300  0.45113200  0.15394000  1
  H  1270  1  0.88883300  0.44541400  0.20142400  1
  H  1272  1  0.86922900  0.38223300  0.21087400  1
  H  1279  1  0.54896000  0.24552000  0.98920100  1
  H  1280  1  0.63654100  0.27992700  0.01423180  1
  H  1287  1  0.37590800  0.21488300  0.00799084  1
  H  1288  1  0.49625000  0.22962000  0.03401980  1
  H  1291  1  0.51740400  0.25875300  0.05010180  1
  H  1292  1  0.46814500  0.25271900  0.97576200  1
  H  1294  1  0.40991400  0.19818800  0.03090880  1
  H  1296  1  0.37812000  0.22569000  0.97667900  1
  H  1298  1  0.63872900  0.27317800  0.98240000  1
  H  1300  1  0.61912100  0.28267000  0.04556380  1
  H  1307  1  0.04901100  0.25379400  0.36661700  1
  H  1308  1  0.13656800  0.21938800  0.34157100  1
  H  1315  1  0.87592700  0.28442300  0.34785600  1
  H  1316  1  0.99624400  0.26969300  0.32180200  1
  H  1319  1  0.01738800  0.24056000  0.30571600  1
  H  1320  1  0.96822200  0.24658300  0.38006200  1
  H  1322  1  0.90985700  0.30112700  0.32491500  1
  H  1324  1  0.87820400  0.27362000  0.37916000  1
  H  1326  1  0.13872400  0.22613000  0.37341200  1
  H  1328  1  0.11911400  0.21665400  0.31023800  1
  H  1335  1  0.70153900  0.93790400  0.17344300  1
  H  1336  1  0.60884200  0.91162300  0.20504100  1
  H  1343  1  0.87913900  0.91797600  0.14558300  1
  H  1344  1  0.75627400  0.89279000  0.15844600  1
  H  1347  1  0.73330600  0.87688400  0.18712700  1
  H  1348  1  0.78064100  0.95192100  0.17918600  1
  H  1350  1  0.84596300  0.89538000  0.12837700  1
  H  1352  1  0.88176900  0.94773400  0.15448000  1
  H  1354  1  0.59937900  0.94133300  0.19823600  1
  H  1356  1  0.62852500  0.88073700  0.20904300  1
  H  1363  1  0.20149500  0.56139200  0.18236900  1
  H  1364  1  0.10885100  0.58769000  0.15076300  1
  H  1371  1  0.37908900  0.58130500  0.21025700  1
  H  1372  1  0.25624900  0.60650500  0.19738000  1
  H  1375  1  0.23331400  0.62241600  0.16870400  1
  H  1376  1  0.28058100  0.54737400  0.17663100  1
  H  1378  1  0.34596600  0.60391900  0.22745700  1
  H  1380  1  0.38169900  0.55154500  0.20135900  1
  H  1382  1  0.09937300  0.55797400  0.15756100  1
  H  1384  1  0.12855800  0.61858000  0.14678300  1
  H  1391  1  0.45050700  0.75382600  0.36700100  1
  H  1392  1  0.36265900  0.71951000  0.34197100  1
  H  1399  1  0.62353800  0.78447400  0.34797300  1
  H  1400  1  0.50305100  0.76970700  0.32206100  1
  H  1403  1  0.48149100  0.74071500  0.30602100  1
  H  1404  1  0.53138400  0.74675800  0.38038600  1
  H  1406  1  0.58920600  0.80113900  0.32496600  1
  H  1408  1  0.62142300  0.77373700  0.37934100  1
  H  1410  1  0.36073100  0.72618900  0.37383200  1
  H  1412  1  0.37977800  0.71685700  0.31062500  1
  H  1419  1  0.95044900  0.74546000  0.98882600  1
  H  1420  1  0.86263200  0.77977700  0.01386880  1
  H  1427  1  0.12353100  0.71482600  0.00783184  1
  H  1428  1  0.00307000  0.72958900  0.03376780  1
  H  1431  1  0.98150300  0.75857900  0.04980480  1
  H  1432  1  0.03130000  0.75253200  0.97543100  1
  H  1434  1  0.08925800  0.69816200  0.03085480  1
  H  1436  1  0.12134100  0.72555000  0.97646900  1
  H  1438  1  0.86073600  0.77310200  0.98199700  1
  H  1440  1  0.87977900  0.78242400  0.04521380  1
  H  1447  1  0.79875300  0.56058800  0.68209100  1
  H  1448  1  0.88659100  0.58563100  0.64778100  1
  H  1455  1  0.62567700  0.57962500  0.71272500  1
  H  1456  1  0.74618100  0.60552900  0.69796100  1
  H  1459  1  0.76771700  0.62156600  0.66897200  1
  H  1460  1  0.71786200  0.54719800  0.67502400  1
  H  1462  1  0.66006000  0.60263100  0.72938200  1
  H  1464  1  0.62782600  0.54824100  0.70198600  1
  H  1466  1  0.88851900  0.55376400  0.65446100  1
  H  1468  1  0.86943400  0.61697500  0.64512700  1
  H  1475  1  0.29882100  0.93870600  0.67372900  1
  H  1476  1  0.38661700  0.91364200  0.70804000  1
  H  1483  1  0.12572500  0.91970000  0.64308900  1
  H  1484  1  0.24620400  0.89377400  0.65785100  1
  H  1487  1  0.26769600  0.87773000  0.68684300  1
  H  1488  1  0.21794400  0.95210400  0.68080300  1
  H  1490  1  0.16003500  0.89667300  0.62642700  1
  H  1492  1  0.12792000  0.95107300  0.65382500  1
  H  1494  1  0.38853100  0.94552100  0.70136400  1
  H  1496  1  0.36941500  0.88230000  0.71068300  1
  H  1503  1  0.04774100  0.74518400  0.48968700  1
  H  1504  1  0.14042800  0.77677200  0.51598600  1
  H  1511  1  0.87010900  0.71733200  0.50961200  1
  H  1512  1  0.99298700  0.73018800  0.53479400  1
  H  1515  1  0.01591800  0.75886400  0.55070500  1
  H  1516  1  0.96863100  0.75092800  0.47566400  1
  H  1518  1  0.90329400  0.70012800  0.53221700  1
  H  1520  1  0.86748500  0.72623100  0.47984900  1
  H  1522  1  0.14990100  0.76997400  0.48627300  1
  H  1524  1  0.12070100  0.78077100  0.54687300  1
  H  1531  1  0.54776900  0.75411700  0.86613900  1
  H  1532  1  0.64041800  0.72252600  0.83982500  1
  H  1539  1  0.37013500  0.78198700  0.84623000  1
  H  1540  1  0.49298600  0.76912300  0.82102900  1
  H  1543  1  0.51591300  0.74045500  0.80511500  1
  H  1544  1  0.46868100  0.74837600  0.88016200  1
  H  1546  1  0.40326500  0.79918800  0.82360600  1
  H  1548  1  0.36754200  0.77308700  0.87599400  1
  H  1550  1  0.64989500  0.72931500  0.86954400  1
  H  1552  1  0.62067900  0.71854900  0.80893600  1
  H  1559  1  0.20173500  0.43797400  0.67339300  1
  H  1560  1  0.10882800  0.41167400  0.70489200  1
  H  1567  1  0.37930700  0.41790500  0.64551100  1
  H  1568  1  0.25639300  0.39277200  0.65840000  1
  H  1571  1  0.23309000  0.37688300  0.68695000  1
  H  1572  1  0.28086600  0.45195100  0.67904500  1
  H  1574  1  0.34578900  0.39522200  0.62831500  1
  H  1576  1  0.38198200  0.44770200  0.65438400  1
  H  1578  1  0.09956700  0.44141700  0.69816500  1
  H  1580  1  0.12829000  0.38076900  0.70879700  1
  H  1587  1  0.70168800  0.06132300  0.68242000  1
  H  1588  1  0.60883500  0.08764100  0.65091300  1
  H  1595  1  0.87926000  0.08137600  0.71032600  1
  H  1596  1  0.75637800  0.10652400  0.69742300  1
  H  1599  1  0.73310500  0.12241700  0.66887800  1
  H  1600  1  0.78080000  0.04734100  0.67677600  1
  H  1602  1  0.84578300  0.10407200  0.72751300  1
  H  1604  1  0.88190800  0.05157600  0.70145500  1
  H  1606  1  0.59955500  0.05789200  0.65763200  1
  H  1608  1  0.62832800  0.11854900  0.64703000  1
  H  1615  1  0.95166100  0.25416400  0.86650200  1
  H  1616  1  0.85874900  0.22267800  0.84018800  1
  H  1623  1  0.12928500  0.28203300  0.84637800  1
  H  1624  1  0.00630700  0.26915000  0.82128600  1
  H  1627  1  0.98302600  0.24061100  0.80540700  1
  H  1628  1  0.03083700  0.24854400  0.88047500  1
  H  1630  1  0.09575100  0.29920800  0.82368600  1
  H  1632  1  0.13199500  0.27318600  0.87618200  1
  H  1634  1  0.84945900  0.22940000  0.86992800  1
  H  1636  1  0.87822200  0.21878600  0.80928000  1
  H  1643  1  0.45162800  0.24513500  0.48931900  1
  H  1644  1  0.35875100  0.27662400  0.51564600  1
  H  1651  1  0.62925200  0.21724900  0.50942500  1
  H  1652  1  0.50630400  0.23014000  0.53453400  1
  H  1655  1  0.48302800  0.25867100  0.55041700  1
  H  1656  1  0.53078200  0.25075400  0.47534400  1
  H  1658  1  0.59577600  0.20007500  0.53213600  1
  H  1660  1  0.63193100  0.22609500  0.47962000  1
  H  1662  1  0.34945800  0.26991100  0.48590000  1
  H  1664  1  0.37823700  0.28049300  0.54655800  1
  H  1671  1  0.06983200  0.99556000  0.18880300  1
  H  1672  1  0.12130500  0.01917400  0.18855700  1
  H  1679  1  0.94850100  0.99908500  0.15496600  1
  H  1680  1  0.89641700  0.97594300  0.15571800  1
  H  1681  1  0.95096900  0.96080900  0.20332100  1
  H  1682  1  0.01659400  0.04995600  0.16711200  1
  H  1683  1  0.00080600  0.98476000  0.20309900  1
  H  1684  1  0.96440500  0.02652000  0.16796000  1
  H  1695  1  0.56982700  0.50374700  0.16701300  1
  H  1696  1  0.62131900  0.48013800  0.16725100  1
  H  1703  1  0.44852300  0.50020600  0.20086200  1
  H  1704  1  0.39640200  0.52333700  0.20011500  1
  H  1705  1  0.45090500  0.53848300  0.15250800  1
  H  1706  1  0.51664300  0.44934500  0.18870300  1
  H  1707  1  0.50078000  0.51454200  0.15272500  1
  H  1708  1  0.46444100  0.47277500  0.18786400  1
  H  1719  1  0.31995100  0.23880800  0.92404300  1
  H  1720  1  0.37136300  0.23903000  0.94767700  1
  H  1727  1  0.19863900  0.27264600  0.92756500  1
  H  1728  1  0.14660000  0.27192500  0.90440700  1
  H  1729  1  0.20112900  0.22433000  0.88924000  1
  H  1730  1  0.26655400  0.26042500  0.97844900  1
  H  1731  1  0.25093000  0.22452200  0.91320400  1
  H  1732  1  0.21442900  0.25960300  0.95499200  1
  H  1743  1  0.81994200  0.26049000  0.43178500  1
  H  1744  1  0.87136800  0.26027600  0.40815600  1
  H  1751  1  0.69864500  0.22664700  0.42824400  1
  H  1752  1  0.64657200  0.22736400  0.45139200  1
  H  1753  1  0.70106500  0.27496100  0.46657200  1
  H  1754  1  0.76658800  0.23888400  0.37737100  1
  H  1755  1  0.75090200  0.27477100  0.44261900  1
  H  1756  1  0.71444900  0.23969700  0.40082200  1
  H  1767  1  0.93674000  0.50098100  0.19505900  1
  H  1768  1  0.88654900  0.47699300  0.19417800  1
  H  1775  1  0.03448400  0.50630400  0.15235600  1
  H  1776  1  0.08613700  0.52961000  0.15367400  1
  H  1777  1  0.06207900  0.53386200  0.20660100  1
  H  1778  1  0.97603800  0.45283200  0.15919200  1
  H  1779  1  0.01283500  0.50977400  0.20543700  1
  H  1780  1  0.02734500  0.47652100  0.16058400  1
  H  1791  1  0.43674900  0.99830700  0.16075700  1
  H  1792  1  0.38651300  0.02228100  0.16164300  1
  H  1799  1  0.53451300  0.99300200  0.20345500  1
  H  1800  1  0.58619900  0.96970500  0.20213400  1
  H  1801  1  0.56214000  0.96545700  0.14920600  1
  H  1802  1  0.47596400  0.04646200  0.19662700  1
  H  1803  1  0.51286300  0.98953600  0.15037400  1
  H  1804  1  0.52732100  0.02278700  0.19523000  1
  H  1815  1  0.68667700  0.26679000  0.92684200  1
  H  1816  1  0.63640000  0.26589500  0.95080500  1
  H  1823  1  0.78463500  0.22415200  0.92159600  1
  H  1824  1  0.83638300  0.22549200  0.89831600  1
  H  1825  1  0.81213000  0.27840500  0.89403900  1
  H  1826  1  0.72597100  0.23098900  0.97504000  1
  H  1827  1  0.76278400  0.27722100  0.91810100  1
  H  1828  1  0.77736300  0.23239700  0.95137700  1
  H  1839  1  0.18665900  0.23252200  0.42897100  1
  H  1840  1  0.13641700  0.23341900  0.40499700  1
  H  1847  1  0.28462700  0.27515700  0.43423200  1
  H  1848  1  0.33635000  0.27381500  0.45751800  1
  H  1849  1  0.31207500  0.22090200  0.46179400  1
  H  1850  1  0.22603300  0.26832000  0.38077800  1
  H  1851  1  0.26275200  0.22208900  0.43772600  1
  H  1852  1  0.27739100  0.26691100  0.40445100  1
  H  1863  1  0.67948400  0.76059600  0.43200100  1
  H  1864  1  0.62808200  0.76038400  0.40836500  1
  H  1871  1  0.80083300  0.72676100  0.42848100  1
  H  1872  1  0.85288200  0.72749300  0.45163400  1
  H  1873  1  0.79827500  0.77507600  0.46680500  1
  H  1874  1  0.73286600  0.73896100  0.37760100  1
  H  1875  1  0.74847600  0.77487400  0.44284300  1
  H  1876  1  0.78499100  0.73978000  0.40105800  1
  H  1887  1  0.17949300  0.73870200  0.92381500  1
  H  1888  1  0.12807500  0.73890500  0.94744800  1
  H  1895  1  0.30082100  0.77254600  0.92735400  1
  H  1896  1  0.35290200  0.77181600  0.90420900  1
  H  1897  1  0.29833800  0.72423200  0.88902500  1
  H  1898  1  0.23282800  0.76032800  0.97822400  1
  H  1899  1  0.24850200  0.72442900  0.91297700  1
  H  1900  1  0.28496600  0.75951900  0.95477300  1
  H  1911  1  0.31271200  0.73258100  0.42938200  1
  H  1912  1  0.36301500  0.73348400  0.40542600  1
  H  1919  1  0.21468200  0.77519800  0.43459600  1
  H  1920  1  0.16296100  0.77386200  0.45788400  1
  H  1921  1  0.18729600  0.72095600  0.46219200  1
  H  1922  1  0.27339000  0.76835100  0.38116300  1
  H  1923  1  0.23661700  0.72213600  0.43812300  1
  H  1924  1  0.22197300  0.76693700  0.40481900  1
  H  1935  1  0.81272900  0.76670400  0.92644900  1
  H  1936  1  0.86299900  0.76580100  0.95041400  1
  H  1943  1  0.71468100  0.72409300  0.92122200  1
  H  1944  1  0.66298100  0.72543300  0.89792800  1
  H  1945  1  0.68735200  0.77833500  0.89361800  1
  H  1946  1  0.77332400  0.73094100  0.97466300  1
  H  1947  1  0.73665300  0.77715400  0.91769300  1
  H  1948  1  0.72193900  0.73235700  0.95099800  1
  H  1959  1  0.56983100  0.49558700  0.68877600  1
  H  1960  1  0.62119500  0.51923600  0.68858700  1
  H  1967  1  0.44845800  0.49911900  0.65496900  1
  H  1968  1  0.39648500  0.47593700  0.65567400  1
  H  1969  1  0.45113300  0.46073900  0.70324200  1
  H  1970  1  0.51631400  0.55001000  0.66724500  1
  H  1971  1  0.50086300  0.48472100  0.70306600  1
  H  1972  1  0.46423000  0.52653800  0.66803800  1
  H  1983  1  0.06982500  0.00371800  0.66704300  1
  H  1984  1  0.12120300  0.98007400  0.66722400  1
  H  1991  1  0.94847600  0.00017000  0.70086200  1
  H  1992  1  0.89646500  0.02334000  0.70016000  1
  H  1993  1  0.95106200  0.03854900  0.65258900  1
  H  1994  1  0.01635800  0.94928700  0.68857200  1
  H  1995  1  0.00083400  0.01457900  0.65276100  1
  H  1996  1  0.96425900  0.97275400  0.68778800  1
  H  2007  1  0.43662400  0.00104800  0.69492100  1
  H  2008  1  0.38628800  0.97710300  0.69400800  1
  H  2015  1  0.53489400  0.00620100  0.65238300  1
  H  2016  1  0.58662800  0.02948500  0.65374100  1
  H  2017  1  0.56204300  0.03382200  0.70663000  1
  H  2018  1  0.47608500  0.95277500  0.65924300  1
  H  2019  1  0.51270100  0.00975900  0.70542900  1
  H  2020  1  0.52753200  0.97642300  0.66067100  1
  H  2031  1  0.93664300  0.49823900  0.66089500  1
  H  2032  1  0.88625800  0.52217200  0.66181300  1
  H  2039  1  0.03492700  0.49310800  0.70342900  1
  H  2040  1  0.08669100  0.46983200  0.70206700  1
  H  2041  1  0.06210700  0.46549800  0.64917900  1
  H  2042  1  0.97601700  0.54652000  0.69657600  1
  H  2043  1  0.01273400  0.48955100  0.65038200  1
  H  2044  1  0.02750900  0.52288600  0.69514500  1
  H  2055  1  0.40774700  0.15482000  0.06810080  1
  H  2056  1  0.43523600  0.17636400  0.04938080  1
  H  2063  1  0.39046200  0.16854300  0.12056600  1
  H  2064  1  0.36161000  0.14683000  0.13886300  1
  H  2065  1  0.29964100  0.12240500  0.09666980  1
  H  2066  1  0.38448800  0.21416600  0.08284080  1
  H  2067  1  0.32755500  0.14436700  0.07845680  1
  H  2068  1  0.35739100  0.19257100  0.10162200  1
  H  2079  1  0.90774200  0.34448400  0.28771800  1
  H  2080  1  0.93525500  0.32294500  0.30643800  1
  H  2087  1  0.89033900  0.33073900  0.23526700  1
  H  2088  1  0.86152800  0.35245900  0.21697000  1
  H  2089  1  0.79967000  0.37691700  0.25916600  1
  H  2090  1  0.88437500  0.28513300  0.27301600  1
  H  2091  1  0.82754300  0.35494900  0.27737900  1
  H  2092  1  0.85725700  0.30672500  0.25423200  1
  H  2103  1  0.65762700  0.35959300  0.08317180  1
  H  2104  1  0.68515400  0.37835600  0.10467100  1
  H  2111  1  0.64038300  0.30715400  0.09700880  1
  H  2112  1  0.61151000  0.28880900  0.07533980  1
  H  2113  1  0.54950000  0.33094900  0.05083480  1
  H  2114  1  0.63448900  0.34497000  0.14255300  1
  H  2115  1  0.57743500  0.34920800  0.07275380  1
  H  2116  1  0.60735300  0.32614500  0.12100400  1
  H  2127  1  0.15763300  0.13971800  0.27265000  1
  H  2128  1  0.18515000  0.12095400  0.25114900  1
  H  2135  1  0.14031900  0.19215500  0.25880500  1
  H  2136  1  0.11147100  0.21049700  0.28048000  1
  H  2137  1  0.04955600  0.16835200  0.30500700  1
  H  2138  1  0.13442300  0.15433100  0.21327000  1
  H  2139  1  0.07746000  0.15009400  0.28308300  1
  H  2140  1  0.10729300  0.17315600  0.23482100  1
  H  2151  1  0.58913000  0.84417900  0.28724800  1
  H  2152  1  0.56273900  0.82266900  0.30621500  1
  H  2159  1  0.60841600  0.82979400  0.23488900  1
  H  2160  1  0.63646500  0.85143200  0.21635900  1
  H  2161  1  0.69498700  0.87718300  0.25843300  1
  H  2162  1  0.61567700  0.78483900  0.27325600  1
  H  2163  1  0.66805500  0.85527900  0.27686700  1
  H  2164  1  0.64182000  0.80639500  0.25424600  1
  H  2175  1  0.08918100  0.65512500  0.06857480  1
  H  2176  1  0.06276100  0.67663100  0.04960880  1
  H  2183  1  0.10850400  0.66951700  0.12092700  1
  H  2184  1  0.13652100  0.64787100  0.13945800  1
  H  2185  1  0.19499900  0.62211000  0.09738180  1
  H  2186  1  0.11573000  0.71446600  0.08255480  1
  H  2187  1  0.16810400  0.64402200  0.07894780  1
  H  2188  1  0.14190000  0.69291400  0.10156400  1
  H  2199  1  0.34382900  0.64015100  0.27159000  1
  H  2200  1  0.31752400  0.62157500  0.24972100  1
  H  2207  1  0.35846000  0.69308100  0.25882300  1
  H  2208  1  0.38689000  0.71112600  0.28081300  1
  H  2209  1  0.45045100  0.66879900  0.30444200  1
  H  2210  1  0.36545500  0.65620900  0.21249200  1
  H  2211  1  0.42304200  0.65085700  0.28219000  1
  H  2212  1  0.39155600  0.67482800  0.23441600  1
  H  2223  1  0.84386900  0.85914600  0.08424080  1
  H  2224  1  0.81757800  0.87772000  0.10611500  1
  H  2231  1  0.85851700  0.80621300  0.09700480  1
  H  2232  1  0.88691600  0.78817100  0.07500680  1
  H  2233  1  0.95041800  0.83050200  0.05136580  1
  H  2234  1  0.86550900  0.84307700  0.14333600  1
  H  2235  1  0.92305100  0.84844000  0.07362680  1
  H  2236  1  0.89160200  0.82446000  0.12140700  1
  H  2247  1  0.90550300  0.65601800  0.56847400  1
  H  2248  1  0.93180100  0.67788900  0.54989800  1
  H  2255  1  0.89066800  0.66879100  0.62138700  1
  H  2256  1  0.86222400  0.64679300  0.63942100  1
  H  2257  1  0.79882200  0.62315000  0.59706800  1
  H  2258  1  0.88365900  0.71511500  0.58449600  1
  H  2259  1  0.82624500  0.64541000  0.57913800  1
  H  2260  1  0.85755800  0.69318900  0.60311500  1
  H  2271  1  0.40550400  0.84328800  0.78734100  1
  H  2272  1  0.43183400  0.82142200  0.80591700  1
  H  2279  1  0.39055200  0.83049200  0.73444000  1
  H  2280  1  0.36214600  0.85249400  0.71640600  1
  H  2281  1  0.29885400  0.87617000  0.75876200  1
  H  2282  1  0.38357400  0.78418500  0.77135300  1
  H  2283  1  0.32623800  0.85390400  0.77669400  1
  H  2284  1  0.35744300  0.80610600  0.75273200  1
  H  2295  1  0.16024400  0.85892400  0.58341600  1
  H  2296  1  0.18666100  0.87789400  0.60492100  1
  H  2303  1  0.14069500  0.80659700  0.59782700  1
  H  2304  1  0.11263900  0.78807200  0.57618400  1
  H  2305  1  0.05432200  0.83016500  0.55040000  1
  H  2306  1  0.13344400  0.84500200  0.64275800  1
  H  2307  1  0.08126000  0.84859400  0.57230800  1
  H  2308  1  0.10727500  0.82599100  0.62120700  1
  H  2319  1  0.66020200  0.64038200  0.77239600  1
  H  2320  1  0.68661400  0.62141500  0.75088700  1
  H  2327  1  0.64066000  0.69271500  0.75799200  1
  H  2328  1  0.61262100  0.71123700  0.77964100  1
  H  2329  1  0.55433900  0.66914000  0.80542700  1
  H  2330  1  0.63343300  0.65432200  0.71305800  1
  H  2331  1  0.58124900  0.65071500  0.78351100  1
  H  2332  1  0.60726300  0.67332800  0.73461100  1
  H  2343  1  0.09137500  0.34298000  0.78687800  1
  H  2344  1  0.06618800  0.32115000  0.80570400  1
  H  2351  1  0.10821100  0.32951300  0.73404900  1
  H  2352  1  0.13583000  0.35143200  0.71577200  1
  H  2353  1  0.19573000  0.37644400  0.75803200  1
  H  2354  1  0.11652000  0.28386600  0.77159700  1
  H  2355  1  0.16932600  0.35424300  0.77619200  1
  H  2356  1  0.14166000  0.30574800  0.75275000  1
  H  2367  1  0.59138000  0.15631400  0.56895000  1
  H  2368  1  0.56616200  0.17813900  0.55012500  1
  H  2375  1  0.60831600  0.16980000  0.62176600  1
  H  2376  1  0.63590500  0.14787500  0.64004300  1
  H  2377  1  0.69572100  0.12284100  0.59778100  1
  H  2378  1  0.61659100  0.21543200  0.58419900  1
  H  2379  1  0.66934600  0.14504700  0.57961900  1
  H  2380  1  0.64176100  0.19355600  0.60304800  1
  H  2391  1  0.84129800  0.14080400  0.77133400  1
  H  2392  1  0.81611100  0.12202000  0.74946900  1
  H  2399  1  0.85825700  0.19364200  0.75796000  1
  H  2400  1  0.88584000  0.21187400  0.77992500  1
  H  2401  1  0.94565600  0.16956200  0.80487200  1
  H  2402  1  0.86662700  0.15616000  0.71225000  1
  H  2403  1  0.91928500  0.15144500  0.78262800  1
  H  2404  1  0.89176200  0.17496800  0.73416900  1
  H  2415  1  0.34132000  0.35848600  0.58449600  1
  H  2416  1  0.31614500  0.37727000  0.60636300  1
  H  2423  1  0.35831100  0.30564700  0.59786900  1
  H  2424  1  0.38586600  0.28741800  0.57589900  1
  H  2425  1  0.44563000  0.32973400  0.55094200  1
  H  2426  1  0.36668700  0.34313100  0.64357700  1
  H  2427  1  0.41929000  0.34784800  0.57319300  1
  H  2428  1  0.39181200  0.32432300  0.62165700  1
  C  1  1  0.27363800  0.08452000  0.99535800  1
  C  2  1  0.30597000  0.07103400  0.99631000  1
  C  3  1  0.34760200  0.07134600  0.98694500  1
  C  4  1  0.35668800  0.08545000  0.97637400  1
  C  5  1  0.32552300  0.09925600  0.97530100  1
  C  6  1  0.28420100  0.09886400  0.98507300  1
  C  9  1  0.23206600  0.08350400  0.00508200  1
  C  10  1  0.20092800  0.06965500  0.00318900  1
  C  11  1  0.16165700  0.06825700  0.01389900  1
  C  12  1  0.15415200  0.08063500  0.02660200  1
  C  13  1  0.18354100  0.09489600  0.02832000  1
  C  14  1  0.22295800  0.09589900  0.01771200  1
  C  29  1  0.77367300  0.41477900  0.00394000  1
  C  30  1  0.80603200  0.42825500  0.00298500  1
  C  31  1  0.84764900  0.42793800  0.01236000  1
  C  32  1  0.85672100  0.41382900  0.02292400  1
  C  33  1  0.82553900  0.40002900  0.02399200  1
  C  34  1  0.78421300  0.40043100  0.01422300  1
  C  37  1  0.73211500  0.41580200  0.99420800  1
  C  38  1  0.70099200  0.42965700  0.99610400  1
  C  39  1  0.66172500  0.43106300  0.98539200  1
  C  40  1  0.65420400  0.41868500  0.97268900  1
  C  41  1  0.68356200  0.40441300  0.97097800  1
  C  42  1  0.72299100  0.40340900  0.98157800  1
  C  57  1  0.52355800  0.25396100  0.83478900  1
  C  58  1  0.55590000  0.25300700  0.82130600  1
  C  59  1  0.59752000  0.26237800  0.82161800  1
  C  60  1  0.60658800  0.27295400  0.83571900  1
  C  61  1  0.57541400  0.27402900  0.84952100  1
  C  62  1  0.53410100  0.26425100  0.84913000  1
  C  65  1  0.48199600  0.24423100  0.83376800  1
  C  66  1  0.45087400  0.24612100  0.81991500  1
  C  67  1  0.41163100  0.23539900  0.81850500  1
  C  68  1  0.40414400  0.22268600  0.83087400  1
  C  69  1  0.43352600  0.22096800  0.84513900  1
  C  70  1  0.47290700  0.23159300  0.84615600  1
  C  85  1  0.02358500  0.24535400  0.16450900  1
  C  86  1  0.05594700  0.24631200  0.17798500  1
  C  87  1  0.09755300  0.23693000  0.17767000  1
  C  88  1  0.10661700  0.22636100  0.16356600  1
  C  89  1  0.07543500  0.22529200  0.14976500  1
  C  90  1  0.03411500  0.23506600  0.15016400  1
  C  93  1  0.98203300  0.25508700  0.16553700  1
  C  94  1  0.95092000  0.25319000  0.17939300  1
  C  95  1  0.91168100  0.26391400  0.18081400  1
  C  96  1  0.90418400  0.27663000  0.16844900  1
  C  97  1  0.93352800  0.27834400  0.15417400  1
  C  98  1  0.97292600  0.26772900  0.15315400  1
  C  113  1  0.72596800  0.91404400  0.00358900  1
  C  114  1  0.69322200  0.92735900  0.00216300  1
  C  115  1  0.64962100  0.92664500  0.01030300  1
  C  116  1  0.63980200  0.91224600  0.02045500  1
  C  117  1  0.67182100  0.89881800  0.02242300  1
  C  118  1  0.71458400  0.89958500  0.01358500  1
  C  121  1  0.76868900  0.91512000  0.99449800  1
  C  122  1  0.79931400  0.92914700  0.99639000  1
  C  123  1  0.84070900  0.93011000  0.98666900  1
  C  124  1  0.84984000  0.91718000  0.97462500  1
  C  125  1  0.82030900  0.90302500  0.97255300  1
  C  126  1  0.77952600  0.90236700  0.98242200  1
  C  141  1  0.22595100  0.58525200  0.99571000  1
  C  142  1  0.19319100  0.57194100  0.99713000  1
  C  143  1  0.14962200  0.57265500  0.98897000  1
  C  144  1  0.13980800  0.58706100  0.97882800  1
  C  145  1  0.17183100  0.60049100  0.97687800  1
  C  146  1  0.21458500  0.59971700  0.98571900  1
  C  149  1  0.26865200  0.58417000  0.00481600  1
  C  150  1  0.29927600  0.57014300  0.00292000  1
  C  151  1  0.34065100  0.56917000  0.01265300  1
  C  152  1  0.34978600  0.58210200  0.02469400  1
  C  153  1  0.32027300  0.59626200  0.02676000  1
  C  154  1  0.27948200  0.59691900  0.01689600  1
  C  169  1  0.47573500  0.74543000  0.16484900  1
  C  170  1  0.44349400  0.74635700  0.17836700  1
  C  171  1  0.40184900  0.73699900  0.17807100  1
  C  172  1  0.39264600  0.72646300  0.16395300  1
  C  173  1  0.42370700  0.72541600  0.15011300  1
  C  174  1  0.46504700  0.73518200  0.15049000  1
  C  177  1  0.51730700  0.75516100  0.16583700  1
  C  178  1  0.54849600  0.75330000  0.17967700  1
  C  179  1  0.58778400  0.76400800  0.18102900  1
  C  180  1  0.59526300  0.77668300  0.16861700  1
  C  181  1  0.56584000  0.77835400  0.15436400  1
  C  182  1  0.52640000  0.76775700  0.15340600  1
  C  197  1  0.97570900  0.75385600  0.83445200  1
  C  198  1  0.94344400  0.75292500  0.82094200  1
  C  199  1  0.90181600  0.76229300  0.82123900  1
  C  200  1  0.89261700  0.77282300  0.83536100  1
  C  201  1  0.92368800  0.77386500  0.84919700  1
  C  202  1  0.96503100  0.76410200  0.84881300  1
  C  205  1  0.01727000  0.74412100  0.83345700  1
  C  206  1  0.04844400  0.74598600  0.81961400  1
  C  207  1  0.08773300  0.73527800  0.81825300  1
  C  208  1  0.09523400  0.72260600  0.83066500  1
  C  209  1  0.06584300  0.72093900  0.84493000  1
  C  210  1  0.02638900  0.73152900  0.84588900  1
  C  225  1  0.77350000  0.58447500  0.49543000  1
  C  226  1  0.80575100  0.57096300  0.49636000  1
  C  227  1  0.84740000  0.57126500  0.48700500  1
  C  228  1  0.85660000  0.58538400  0.47647000  1
  C  229  1  0.82552200  0.59921800  0.47542000  1
  C  230  1  0.78417800  0.59883600  0.48518400  1
  C  233  1  0.73193500  0.58348500  0.50516200  1
  C  234  1  0.70074600  0.56964700  0.50330200  1
  C  235  1  0.66145200  0.56829900  0.51400900  1
  C  236  1  0.65396500  0.58071400  0.52667800  1
  C  237  1  0.68339500  0.59496600  0.52834700  1
  C  238  1  0.72283500  0.59592000  0.51775200  1
  C  253  1  0.27353400  0.91482300  0.50386500  1
  C  254  1  0.30581100  0.92832800  0.50293400  1
  C  255  1  0.34744000  0.92802000  0.51229900  1
  C  256  1  0.35662900  0.91389500  0.52282600  1
  C  257  1  0.32553700  0.90006600  0.52386800  1
  C  258  1  0.28419100  0.90045800  0.51410700  1
  C  261  1  0.23198300  0.91582200  0.49412500  1
  C  262  1  0.20080200  0.92966200  0.49599000  1
  C  263  1  0.16151600  0.93102000  0.48528100  1
  C  264  1  0.15402500  0.91860900  0.47260600  1
  C  265  1  0.18342700  0.90434800  0.47094000  1
  C  266  1  0.22288100  0.90339300  0.48153000  1
  C  281  1  0.02329200  0.75359000  0.33528300  1
  C  282  1  0.05605000  0.75216400  0.32197200  1
  C  283  1  0.09965100  0.76030000  0.32269700  1
  C  284  1  0.10946600  0.77045000  0.33709800  1
  C  285  1  0.07742900  0.77241600  0.35052100  1
  C  286  1  0.03466500  0.76358300  0.34974500  1
  C  289  1  0.98057500  0.74449900  0.33420200  1
  C  290  1  0.94995100  0.74639400  0.32017600  1
  C  291  1  0.90855200  0.73667300  0.31921400  1
  C  292  1  0.89941400  0.72463200  0.33214500  1
  C  293  1  0.92894900  0.72256100  0.34630000  1
  C  294  1  0.96973800  0.73242500  0.34695700  1
  C  309  1  0.52330200  0.74572100  0.66401900  1
  C  310  1  0.55606900  0.74714200  0.67732600  1
  C  311  1  0.59964200  0.73898700  0.67660600  1
  C  312  1  0.60945800  0.72884800  0.66219700  1
  C  313  1  0.57742500  0.72689800  0.64877100  1
  C  314  1  0.53466200  0.73573400  0.64955100  1
  C  317  1  0.48059800  0.75482300  0.66510700  1
  C  318  1  0.44998100  0.75292300  0.67913300  1
  C  319  1  0.40859500  0.76265200  0.68010600  1
  C  320  1  0.39944400  0.77469000  0.66717300  1
  C  321  1  0.42895700  0.77675600  0.65301200  1
  C  322  1  0.46975800  0.76689900  0.65235600  1
  C  337  1  0.22604200  0.41407800  0.50349300  1
  C  338  1  0.19336600  0.42741900  0.50209100  1
  C  339  1  0.14974800  0.42671200  0.51021600  1
  C  340  1  0.13981700  0.41229400  0.52032400  1
  C  341  1  0.17175800  0.39883700  0.52226400  1
  C  342  1  0.21454700  0.39960000  0.51344300  1
  C  345  1  0.26877700  0.41513900  0.49440400  1
  C  346  1  0.29943400  0.42915900  0.49627800  1
  C  347  1  0.34085200  0.43009100  0.48656400  1
  C  348  1  0.34999100  0.41713800  0.47454400  1
  C  349  1  0.32044600  0.40298300  0.47251400  1
  C  350  1  0.27962800  0.40235800  0.48236100  1
  C  365  1  0.72602700  0.08521700  0.49580700  1
  C  366  1  0.69333200  0.07188200  0.49720400  1
  C  367  1  0.64974600  0.07258900  0.48905900  1
  C  368  1  0.63982300  0.08701400  0.47895900  1
  C  369  1  0.67176600  0.10047200  0.47703800  1
  C  370  1  0.71455300  0.09970200  0.48586000  1
  C  373  1  0.76873800  0.08414900  0.50490900  1
  C  374  1  0.79939300  0.07012900  0.50303300  1
  C  375  1  0.84079200  0.06918600  0.51275800  1
  C  376  1  0.84993700  0.08214200  0.52477300  1
  C  377  1  0.82041600  0.09630400  0.52679900  1
  C  378  1  0.77958800  0.09692800  0.51695500  1
  C  393  1  0.97597600  0.24580600  0.66434500  1
  C  394  1  0.94329500  0.24720600  0.67768500  1
  C  395  1  0.89967000  0.23908500  0.67697400  1
  C  396  1  0.88974000  0.22897900  0.66255200  1
  C  397  1  0.92169000  0.22703900  0.64909700  1
  C  398  1  0.96448100  0.23585700  0.64986400  1
  C  401  1  0.01870400  0.25490000  0.66540200  1
  C  402  1  0.04938100  0.25303200  0.67941600  1
  C  403  1  0.09081400  0.26273900  0.68033100  1
  C  404  1  0.09995000  0.27474500  0.66736500  1
  C  405  1  0.07038500  0.27677200  0.65321500  1
  C  406  1  0.02955000  0.26693300  0.65261000  1
  C  421  1  0.47596000  0.25348300  0.33495300  1
  C  422  1  0.44326900  0.25208900  0.32161700  1
  C  423  1  0.39967200  0.26022900  0.32232600  1
  C  424  1  0.38974600  0.27032400  0.33675500  1
  C  425  1  0.42168900  0.27224500  0.35021300  1
  C  426  1  0.46447900  0.26342800  0.34944000  1
  C  429  1  0.51867500  0.24437900  0.33389200  1
  C  430  1  0.54934700  0.24625200  0.31987600  1
  C  431  1  0.59076700  0.23653700  0.31894900  1
  C  432  1  0.59991200  0.22453400  0.33191700  1
  C  433  1  0.57037100  0.22251200  0.34607300  1
  C  434  1  0.52952500  0.23234400  0.34667900  1
  C  449  1  0.07391300  0.03693600  0.99967900  1
  C  450  1  0.02833600  0.03851500  0.99336400  1
  C  451  1  0.99758700  0.02462800  0.99383500  1
  C  452  1  0.01153200  0.00856600  0.00027200  1
  C  453  1  0.05762900  0.00699800  0.00621500  1
  C  454  1  0.08815700  0.02094100  0.00604600  1
  C  457  1  0.98042000  0.99436700  0.00065000  1
  C  458  1  0.94917600  0.99126800  0.98712500  1
  C  459  1  0.91892100  0.97724500  0.98740700  1
  C  460  1  0.91896600  0.96549000  0.00109500  1
  C  461  1  0.94966000  0.96878200  0.01476600  1
  C  462  1  0.97971000  0.98287900  0.01454500  1
  C  469  1  0.88868100  0.95104500  0.00145300  1
  C  470  1  0.10469800  0.05103600  0.99959700  1
  C  473  1  0.57394600  0.46237000  0.99960900  1
  C  474  1  0.52837600  0.46078700  0.00592900  1
  C  475  1  0.49761700  0.47467000  0.00546300  1
  C  476  1  0.51154800  0.49073600  0.99902700  1
  C  477  1  0.55763700  0.49230700  0.99307900  1
  C  478  1  0.58817500  0.47836700  0.99324300  1
  C  481  1  0.48042200  0.50493200  0.99865400  1
  C  482  1  0.44918500  0.50802400  0.01218300  1
  C  483  1  0.41891000  0.52204200  0.01190200  1
  C  484  1  0.41892700  0.53379700  0.99821500  1
  C  485  1  0.44961700  0.53051200  0.98454100  1
  C  486  1  0.47968800  0.51642000  0.98476000  1
  C  493  1  0.38858300  0.54822700  0.99786000  1
  C  494  1  0.60474400  0.44827300  0.99969200  1
  C  497  1  0.32391600  0.24962000  0.78717300  1
  C  498  1  0.27832800  0.25592800  0.78874400  1
  C  499  1  0.24761600  0.25547100  0.77484600  1
  C  500  1  0.26161300  0.24905800  0.75878100  1
  C  501  1  0.30771500  0.24311900  0.75722300  1
  C  502  1  0.33820500  0.24327400  0.77117700  1
  C  505  1  0.23054000  0.24870200  0.74457000  1
  C  506  1  0.19932100  0.26223600  0.74147500  1
  C  507  1  0.16909600  0.26197100  0.72744400  1
  C  508  1  0.16914500  0.24829400  0.71567800  1
  C  509  1  0.19982100  0.23461500  0.71896200  1
  C  510  1  0.22984600  0.23481900  0.73306600  1
  C  517  1  0.13885100  0.24794800  0.70123600  1
  C  518  1  0.35466700  0.24969800  0.80128400  1
  C  521  1  0.82393600  0.24968900  0.21212900  1
  C  522  1  0.77835300  0.24338000  0.21055300  1
  C  523  1  0.74763100  0.24383000  0.22445000  1
  C  524  1  0.76161800  0.25023900  0.24051700  1
  C  525  1  0.80771700  0.25618100  0.24208100  1
  C  526  1  0.83821400  0.25603100  0.22812900  1
  C  529  1  0.73053300  0.25059100  0.25472600  1
  C  530  1  0.69931700  0.23705500  0.25781400  1
  C  531  1  0.66907000  0.23731900  0.27184000  1
  C  532  1  0.66909700  0.25099500  0.28360700  1
  C  533  1  0.69977700  0.26467400  0.28033000  1
  C  534  1  0.72982400  0.26447200  0.26623100  1
  C  541  1  0.63875300  0.25133800  0.29803400  1
  C  542  1  0.85469900  0.24961500  0.19802200  1
  C  545  1  0.92659800  0.46249900  0.99845600  1
  C  546  1  0.96728800  0.46294600  0.98849700  1
  C  547  1  0.99745900  0.47698500  0.98929400  1
  C  548  1  0.98750800  0.49123600  0.99974300  1
  C  549  1  0.94613700  0.49081800  0.00941500  1
  C  550  1  0.91639100  0.47665900  0.00889600  1
  C  553  1  0.01797200  0.50559600  0.00048000  1
  C  554  1  0.04019700  0.51185700  0.98569100  1
  C  555  1  0.07008300  0.52597300  0.98642400  1
  C  556  1  0.07864700  0.53461800  0.00193700  1
  C  557  1  0.05685800  0.52820600  0.01676100  1
  C  558  1  0.02714500  0.51403700  0.01604700  1
  C  565  1  0.10943600  0.54886900  0.00287600  1
  C  566  1  0.89622700  0.44831500  0.99780600  1
  C  569  1  0.42653800  0.03678300  0.00084400  1
  C  570  1  0.46723100  0.03634600  0.01079900  1
  C  571  1  0.49743300  0.02231500  0.01000000  1
  C  572  1  0.48750700  0.00806400  0.99954900  1
  C  573  1  0.44613200  0.00847000  0.98988000  1
  C  574  1  0.41635500  0.02262000  0.99040200  1
  C  577  1  0.51800000  0.99371000  0.99881000  1
  C  578  1  0.54023400  0.98745200  0.01359700  1
  C  579  1  0.57013900  0.97334300  0.01286200  1
  C  580  1  0.57870900  0.96469900  0.99734800  1
  C  581  1  0.55691400  0.97111000  0.98252500  1
  C  582  1  0.52718200  0.98527500  0.98324100  1
  C  589  1  0.60951000  0.95045100  0.99640900  1
  C  590  1  0.39613200  0.05095800  0.00149400  1
  C  593  1  0.67648000  0.24847100  0.78707000  1
  C  594  1  0.71721800  0.23854000  0.78665400  1
  C  595  1  0.74744100  0.23934600  0.77263000  1
  C  596  1  0.73749400  0.24977800  0.75836800  1
  C  597  1  0.69607000  0.25942000  0.75875300  1
  C  598  1  0.66627300  0.25889300  0.77289600  1
  C  601  1  0.76801400  0.25052800  0.74402500  1
  C  602  1  0.79032800  0.23575000  0.73778200  1
  C  603  1  0.82026800  0.23649600  0.72368400  1
  C  604  1  0.82880300  0.25201100  0.71504100  1
  C  605  1  0.80693500  0.26682600  0.72143700  1
  C  606  1  0.77716200  0.26609900  0.73558700  1
  C  613  1  0.85962800  0.25295700  0.70080200  1
  C  614  1  0.64606700  0.24782300  0.80124200  1
  C  617  1  0.17652500  0.25084000  0.21221700  1
  C  618  1  0.21726500  0.26077000  0.21264100  1
  C  619  1  0.24746600  0.25996400  0.22667100  1
  C  620  1  0.23749500  0.24953300  0.24093200  1
  C  621  1  0.19606900  0.23989200  0.24053900  1
  C  622  1  0.16629300  0.24041900  0.22639000  1
  C  625  1  0.26799800  0.24878200  0.25528000  1
  C  626  1  0.29030900  0.26355900  0.26152400  1
  C  627  1  0.32023700  0.26281100  0.27562700  1
  C  628  1  0.32875900  0.24729600  0.28427100  1
  C  629  1  0.30688800  0.23248300  0.27787300  1
  C  630  1  0.27712900  0.23321000  0.26371900  1
  C  637  1  0.35957100  0.24634600  0.29851300  1
  C  638  1  0.14614200  0.25148900  0.19803800  1
  C  641  1  0.67552100  0.74978300  0.21235100  1
  C  642  1  0.72109800  0.74346400  0.21078200  1
  C  643  1  0.75180900  0.74391700  0.22468100  1
  C  644  1  0.73781900  0.75033600  0.24074500  1
  C  645  1  0.69172000  0.75628200  0.24230100  1
  C  646  1  0.66123300  0.75613300  0.22834600  1
  C  649  1  0.76889300  0.75069700  0.25495500  1
  C  650  1  0.80013700  0.73717100  0.25804800  1
  C  651  1  0.83037100  0.73744200  0.27207700  1
  C  652  1  0.83029800  0.75112000  0.28384500  1
  C  653  1  0.79960100  0.76479000  0.28056200  1
  C  654  1  0.76957500  0.76458000  0.26645800  1
  C  661  1  0.86057600  0.75146900  0.29829300  1
  C  662  1  0.64477200  0.74971200  0.19824100  1
  C  665  1  0.17549700  0.74950500  0.78694700  1
  C  666  1  0.22106800  0.75582700  0.78852000  1
  C  667  1  0.25178700  0.75537900  0.77462400  1
  C  668  1  0.23781000  0.74896400  0.75855700  1
  C  669  1  0.19171700  0.74301400  0.75699600  1
  C  670  1  0.16122300  0.74315800  0.77094900  1
  C  673  1  0.26889700  0.74860600  0.74434900  1
  C  674  1  0.30013700  0.76213600  0.74126200  1
  C  675  1  0.33038900  0.76186700  0.72723900  1
  C  676  1  0.33034200  0.74819100  0.71547000  1
  C  677  1  0.29964300  0.73451800  0.71874700  1
  C  678  1  0.26959600  0.73472500  0.73284400  1
  C  685  1  0.36066800  0.74784500  0.70103800  1
  C  686  1  0.14473600  0.74957500  0.80105300  1
  C  689  1  0.32291200  0.75088900  0.21262700  1
  C  690  1  0.28214700  0.76080700  0.21303300  1
  C  691  1  0.25191000  0.75999600  0.22705100  1
  C  692  1  0.26186700  0.74957400  0.24131900  1
  C  693  1  0.30331200  0.73994400  0.24094400  1
  C  694  1  0.33312600  0.74047700  0.22680600  1
  C  697  1  0.23134200  0.74882400  0.25566000  1
  C  698  1  0.20901100  0.76360200  0.26189600  1
  C  699  1  0.17908600  0.76285800  0.27599900  1
  C  700  1  0.17058800  0.74734800  0.28465500  1
  C  701  1  0.19246800  0.73253400  0.27826400  1
  C  702  1  0.22222500  0.73325700  0.26410900  1
  C  709  1  0.13977900  0.74640500  0.29889900  1
  C  710  1  0.35333800  0.75154300  0.19845900  1
  C  713  1  0.82286700  0.74839800  0.78668600  1
  C  714  1  0.78209800  0.73848300  0.78627300  1
  C  715  1  0.75188200  0.73929400  0.77224900  1
  C  716  1  0.76186400  0.74971600  0.75798000  1
  C  717  1  0.80331100  0.75934300  0.75836400  1
  C  718  1  0.83310900  0.75880900  0.77250700  1
  C  721  1  0.73135700  0.75046500  0.74363600  1
  C  722  1  0.70902500  0.73569000  0.73739900  1
  C  723  1  0.67911000  0.73643400  0.72329200  1
  C  724  1  0.67062700  0.75194500  0.71463400  1
  C  725  1  0.69251600  0.76675900  0.72102600  1
  C  726  1  0.72225700  0.76603400  0.73518500  1
  C  733  1  0.63983300  0.75289100  0.70038800  1
  C  734  1  0.85326300  0.74774400  0.80086100  1
  C  737  1  0.57370000  0.53699400  0.49976800  1
  C  738  1  0.52811000  0.53856300  0.49346400  1
  C  739  1  0.49742300  0.52465600  0.49390200  1
  C  740  1  0.51145800  0.50858600  0.50029200  1
  C  741  1  0.55756800  0.50703000  0.50622300  1
  C  742  1  0.58803000  0.52099300  0.50608800  1
  C  745  1  0.48041100  0.49436700  0.50063900  1
  C  746  1  0.44917800  0.49127800  0.48710900  1
  C  747  1  0.41899300  0.47723400  0.48736400  1
  C  748  1  0.41910000  0.46545300  0.50102800  1
  C  749  1  0.44978300  0.46873200  0.51470400  1
  C  750  1  0.47976700  0.48284900  0.51450900  1
  C  757  1  0.38885300  0.45099700  0.50136500  1
  C  758  1  0.60442900  0.55110900  0.49970800  1
  C  761  1  0.07372900  0.96230800  0.49952300  1
  C  762  1  0.02814300  0.96073400  0.50583000  1
  C  763  1  0.99744900  0.97464000  0.50539800  1
  C  764  1  0.01146700  0.99071300  0.49900900  1
  C  765  1  0.05757300  0.99227300  0.49307500  1
  C  766  1  0.08804300  0.97831300  0.49320300  1
  C  769  1  0.98041300  0.00492900  0.49866800  1
  C  770  1  0.94918300  0.00801200  0.51220100  1
  C  771  1  0.91897300  0.02204900  0.51194700  1
  C  772  1  0.91905300  0.03383100  0.49828400  1
  C  773  1  0.94974000  0.03055800  0.48460600  1
  C  774  1  0.97974500  0.01644800  0.48479800  1
  C  781  1  0.88875000  0.04827100  0.49794900  1
  C  782  1  0.10447100  0.94819600  0.49958000  1
  C  785  1  0.42647600  0.96253400  0.49839100  1
  C  786  1  0.46729700  0.96291800  0.48850500  1
  C  787  1  0.49755100  0.97693100  0.48932200  1
  C  788  1  0.48755500  0.99121300  0.49972100  1
  C  789  1  0.44604900  0.99086000  0.50931700  1
  C  790  1  0.41621700  0.97672800  0.50877700  1
  C  793  1  0.51810300  0.00554400  0.50048500  1
  C  794  1  0.54051800  0.01176600  0.48571900  1
  C  795  1  0.57045000  0.02586500  0.48647500  1
  C  796  1  0.57887500  0.03452800  0.50198800  1
  C  797  1  0.55692400  0.02814800  0.51679200  1
  C  798  1  0.52715800  0.01399700  0.51605500  1
  C  805  1  0.60966200  0.04877500  0.50294100  1
  C  806  1  0.39605500  0.94836700  0.49774300  1
  C  809  1  0.92642200  0.53674900  0.50090700  1
  C  810  1  0.96724600  0.53637500  0.51079200  1
  C  811  1  0.99752800  0.52237100  0.50997100  1
  C  812  1  0.98756000  0.50808800  0.49957100  1
  C  813  1  0.94604700  0.50842900  0.48997800  1
  C  814  1  0.91618700  0.52255300  0.49052000  1
  C  817  1  0.01813400  0.49376300  0.49880600  1
  C  818  1  0.04055700  0.48754500  0.51357100  1
  C  819  1  0.07050900  0.47345100  0.51281300  1
  C  820  1  0.07894200  0.46479100  0.49729900  1
  C  821  1  0.05698500  0.47117000  0.48249500  1
  C  822  1  0.02719800  0.48531500  0.48323300  1
  C  829  1  0.10974100  0.45054800  0.49634600  1
  C  830  1  0.89596400  0.55090600  0.50155600  1
  C  833  1  0.41197700  0.19750500  0.88575700  1
  C  834  1  0.39026800  0.20172000  0.90135800  1
  C  835  1  0.37425400  0.18896900  0.91247900  1
  C  836  1  0.37950100  0.17153300  0.90841500  1
  C  837  1  0.40227200  0.16729000  0.89305100  1
  C  838  1  0.41838000  0.18004200  0.88196700  1
  C  841  1  0.36213600  0.15857700  0.91940300  1
  C  842  1  0.37103800  0.15896300  0.93710500  1
  C  843  1  0.35456600  0.14598900  0.94786100  1
  C  844  1  0.32828000  0.13225200  0.94133400  1
  C  845  1  0.31837900  0.13212100  0.92369300  1
  C  846  1  0.33539300  0.14496300  0.91289300  1
  C  853  1  0.31216100  0.11892100  0.95212700  1
  C  854  1  0.42651700  0.21049900  0.87423100  1
  C  857  1  0.91193000  0.30180100  0.11356000  1
  C  858  1  0.89017600  0.29758100  0.09796800  1
  C  859  1  0.87414800  0.31032800  0.08684600  1
  C  860  1  0.87942600  0.32776700  0.09089900  1
  C  861  1  0.90224200  0.33201200  0.10625400  1
  C  862  1  0.91836100  0.31926400  0.11733800  1
  C  865  1  0.86206500  0.34072000  0.07990900  1
  C  866  1  0.87094300  0.34032700  0.06220700  1
  C  867  1  0.85449500  0.35330400  0.05144900  1
  C  868  1  0.82825900  0.36705400  0.05797800  1
  C  869  1  0.81837100  0.36719200  0.07561900  1
  C  870  1  0.83536200  0.35434400  0.08642000  1
  C  877  1  0.81218200  0.38039800  0.04719300  1
  C  878  1  0.92650500  0.28881200  0.12508900  1
  C  881  1  0.66194000  0.36376200  0.94758600  1
  C  882  1  0.64024100  0.34816800  0.95183800  1
  C  883  1  0.62420200  0.33702100  0.93911400  1
  C  884  1  0.62941800  0.34105000  0.92166700  1
  C  885  1  0.65217200  0.35640700  0.91738900  1
  C  886  1  0.66830500  0.36751500  0.93011600  1
  C  889  1  0.61204000  0.33003200  0.90873900  1
  C  890  1  0.62094500  0.31233200  0.90916100  1
  C  891  1  0.60446000  0.30154700  0.89621300  1
  C  892  1  0.57815500  0.30804500  0.88246500  1
  C  893  1  0.56824900  0.32568400  0.88229800  1
  C  894  1  0.58527800  0.33651300  0.89511500  1
  C  901  1  0.56202900  0.29722300  0.86915800  1
  C  902  1  0.67653500  0.37531300  0.96055200  1
  C  905  1  0.16190600  0.13554600  0.05171300  1
  C  906  1  0.14019100  0.15113600  0.04746300  1
  C  907  1  0.12415700  0.16228200  0.06018700  1
  C  908  1  0.12939100  0.15825600  0.07763400  1
  C  909  1  0.15216500  0.14290200  0.08191100  1
  C  910  1  0.16829000  0.13179300  0.06918400  1
  C  913  1  0.11201800  0.16927300  0.09056400  1
  C  914  1  0.12090300  0.18697400  0.09013700  1
  C  915  1  0.10443300  0.19775900  0.10308900  1
  C  916  1  0.07816600  0.19125900  0.11684500  1
  C  917  1  0.06827700  0.17361800  0.11701600  1
  C  918  1  0.08528600  0.16279000  0.10419500  1
  C  925  1  0.06207300  0.20207000  0.13016500  1
  C  926  1  0.17647700  0.12399400  0.03874400  1
  C  929  1  0.58718900  0.80153100  0.11358400  1
  C  930  1  0.60924700  0.79728200  0.09806000  1
  C  931  1  0.62467700  0.81001100  0.08680200  1
  C  932  1  0.61842600  0.82745900  0.09063400  1
  C  933  1  0.59533600  0.83171400  0.10593300  1
  C  934  1  0.57987200  0.81898500  0.11716600  1
  C  937  1  0.63515000  0.84041000  0.07949600  1
  C  938  1  0.62691900  0.83965200  0.06176100  1
  C  939  1  0.64287900  0.85259400  0.05085500  1
  C  940  1  0.66793100  0.86669700  0.05726100  1
  C  941  1  0.67709300  0.86722100  0.07495300  1
  C  942  1  0.66065200  0.85439500  0.08589000  1
  C  949  1  0.68388300  0.87994800  0.04631900  1
  C  950  1  0.57305700  0.78858000  0.12522100  1
  C  953  1  0.08722400  0.69777200  0.88571200  1
  C  954  1  0.10930000  0.70202200  0.90123200  1
  C  955  1  0.12474800  0.68929500  0.91248800  1
  C  956  1  0.11849700  0.67184700  0.90865900  1
  C  957  1  0.09539100  0.66758900  0.89336400  1
  C  958  1  0.07990800  0.68031600  0.88213300  1
  C  961  1  0.13522500  0.65889700  0.91979800  1
  C  962  1  0.12699900  0.65965700  0.93753400  1
  C  963  1  0.14293700  0.64671100  0.94843900  1
  C  964  1  0.16796300  0.63260100  0.94203200  1
  C  965  1  0.17712600  0.63207700  0.92434100  1
  C  966  1  0.16070900  0.64490700  0.91340400  1
  C  973  1  0.18387300  0.61933600  0.95296500  1
  C  974  1  0.07305500  0.71071800  0.87407500  1
  C  977  1  0.33954400  0.63683900  0.05058900  1
  C  978  1  0.36002800  0.65272100  0.04662800  1
  C  979  1  0.37542700  0.66373900  0.05957200  1
  C  980  1  0.37067100  0.65929400  0.07694000  1
  C  981  1  0.34894500  0.64365500  0.08091600  1
  C  982  1  0.33352300  0.63266300  0.06797800  1
  C  985  1  0.38764100  0.67013900  0.09009100  1
  C  986  1  0.37811300  0.68780000  0.09003300  1
  C  987  1  0.39432800  0.69840400  0.10317700  1
  C  988  1  0.42095200  0.69176200  0.11677300  1
  C  989  1  0.43142500  0.67416700  0.11658800  1
  C  990  1  0.41470800  0.66351900  0.10356800  1
  C  997  1  0.43698400  0.70240100  0.13024100  1
  C  998  1  0.32574100  0.62537700  0.03744500  1
  C  1001  1  0.83959800  0.86245000  0.94872100  1
  C  1002  1  0.86008200  0.84656600  0.95267800  1
  C  1003  1  0.87547300  0.83555100  0.93973100  1
  C  1004  1  0.87071400  0.84000000  0.92236400  1
  C  1005  1  0.84898800  0.85563900  0.91839200  1
  C  1006  1  0.83357600  0.86663000  0.93133300  1
  C  1009  1  0.88767700  0.82915600  0.90921100  1
  C  1010  1  0.87815600  0.81149400  0.90926900  1
  C  1011  1  0.89435100  0.80089200  0.89612000  1
  C  1012  1  0.92094600  0.80753700  0.88251900  1
  C  1013  1  0.93141600  0.82513100  0.88270300  1
  C  1014  1  0.91472000  0.83577700  0.89572800  1
  C  1021  1  0.93694400  0.79690900  0.86903600  1
  C  1022  1  0.82581600  0.87390700  0.96187000  1
  C  1025  1  0.90967700  0.69875700  0.38688600  1
  C  1026  1  0.88913500  0.70272000  0.40275700  1
  C  1027  1  0.87373600  0.68977400  0.41377400  1
  C  1028  1  0.87855400  0.67240600  0.40933700  1
  C  1029  1  0.90034500  0.66843000  0.39371100  1
  C  1030  1  0.91576500  0.68136900  0.38271800  1
  C  1033  1  0.86156600  0.65925500  0.42017400  1
  C  1034  1  0.87104300  0.65931600  0.43783900  1
  C  1035  1  0.85482100  0.64616800  0.44843600  1
  C  1036  1  0.82824200  0.63256800  0.44178000  1
  C  1037  1  0.81781400  0.63274800  0.42418300  1
  C  1038  1  0.83454100  0.64577300  0.41354200  1
  C  1045  1  0.81222000  0.61909200  0.45241200  1
  C  1046  1  0.92344200  0.71190000  0.37542100  1
  C  1049  1  0.40965100  0.80055000  0.61242500  1
  C  1050  1  0.38906700  0.79658300  0.59656300  1
  C  1051  1  0.37365100  0.80952500  0.58554500  1
  C  1052  1  0.37849000  0.82689400  0.58997300  1
  C  1053  1  0.40032700  0.83087500  0.60559000  1
  C  1054  1  0.41576300  0.81794000  0.61658100  1
  C  1057  1  0.36150300  0.84004300  0.57913400  1
  C  1058  1  0.37095500  0.83997400  0.56146700  1
  C  1059  1  0.35475300  0.85312500  0.55086900  1
  C  1060  1  0.32822200  0.86673700  0.55752600  1
  C  1061  1  0.31780900  0.86656200  0.57512400  1
  C  1062  1  0.33451400  0.85353500  0.58576500  1
  C  1069  1  0.31224200  0.88022500  0.54690300  1
  C  1070  1  0.42345400  0.78741400  0.62389300  1
  C  1073  1  0.16207400  0.86355800  0.44779900  1
  C  1074  1  0.13993100  0.84805200  0.45205300  1
  C  1075  1  0.12448300  0.83679300  0.43932800  1
  C  1076  1  0.13080500  0.84060800  0.42188100  1
  C  1077  1  0.15398600  0.85588600  0.41761900  1
  C  1078  1  0.16946700  0.86711900  0.43034500  1
  C  1081  1  0.11406000  0.82947300  0.40893200  1
  C  1082  1  0.12222900  0.81173400  0.40970100  1
  C  1083  1  0.10626700  0.80083200  0.39675800  1
  C  1084  1  0.08127700  0.80724700  0.38264300  1
  C  1085  1  0.07217100  0.82494200  0.38211000  1
  C  1086  1  0.08861300  0.83587500  0.39493700  1
  C  1093  1  0.06534300  0.79630900  0.36938700  1
  C  1094  1  0.17622400  0.87520000  0.46073900  1
  C  1097  1  0.66204700  0.63576100  0.55149100  1
  C  1098  1  0.63991600  0.65127000  0.54723900  1
  C  1099  1  0.62446500  0.66252400  0.55996600  1
  C  1100  1  0.63077900  0.65870400  0.57741400  1
  C  1101  1  0.65395100  0.64342400  0.58167200  1
  C  1102  1  0.66943000  0.63219200  0.56894400  1
  C  1105  1  0.61403700  0.66983800  0.59036400  1
  C  1106  1  0.62219800  0.68757600  0.58959700  1
  C  1107  1  0.60624900  0.69847700  0.60254300  1
  C  1108  1  0.58127700  0.69206000  0.61666200  1
  C  1109  1  0.57217000  0.67436500  0.61719300  1
  C  1110  1  0.58859700  0.66343300  0.60436000  1
  C  1117  1  0.56537300  0.70298700  0.62993100  1
  C  1118  1  0.67617900  0.62412200  0.53854500  1
  C  1121  1  0.08950500  0.30026900  0.61245800  1
  C  1122  1  0.11039400  0.29626400  0.59666100  1
  C  1123  1  0.12520400  0.30918600  0.58550700  1
  C  1124  1  0.11937800  0.32657100  0.58971200  1
  C  1125  1  0.09727200  0.33056900  0.60527700  1
  C  1126  1  0.08250400  0.31765700  0.61642000  1
  C  1129  1  0.13570500  0.33971900  0.57872000  1
  C  1130  1  0.12690400  0.33927400  0.56101100  1
  C  1131  1  0.14259800  0.35238700  0.55026100  1
  C  1132  1  0.16791800  0.36636700  0.55679700  1
  C  1133  1  0.17759800  0.36659000  0.57445700  1
  C  1134  1  0.16146600  0.35358400  0.58523900  1
  C  1141  1  0.18375300  0.37976400  0.54601000  1
  C  1142  1  0.07613500  0.28717300  0.62403000  1
  C  1145  1  0.58952500  0.19902300  0.38683100  1
  C  1146  1  0.61045100  0.20303400  0.40262100  1
  C  1147  1  0.62528200  0.19011500  0.41377500  1
  C  1148  1  0.61944000  0.17272800  0.40957900  1
  C  1149  1  0.59729500  0.16872500  0.39402300  1
  C  1150  1  0.58250600  0.18163500  0.38287900  1
  C  1153  1  0.63577300  0.15958300  0.42057100  1
  C  1154  1  0.62699200  0.16003400  0.43828100  1
  C  1155  1  0.64266800  0.14691800  0.44903300  1
  C  1156  1  0.66795200  0.13292900  0.44249400  1
  C  1157  1  0.67761900  0.13270200  0.42483400  1
  C  1158  1  0.66150300  0.14571000  0.41405200  1
  C  1165  1  0.68374500  0.11951900  0.45327200  1
  C  1166  1  0.57612000  0.21211400  0.37525600  1
  C  1169  1  0.83952200  0.13702500  0.55035600  1
  C  1170  1  0.86046200  0.15282000  0.54638100  1
  C  1171  1  0.87526900  0.16395200  0.55932300  1
  C  1172  1  0.86939200  0.15972200  0.57670100  1
  C  1173  1  0.84723400  0.14416100  0.58066900  1
  C  1174  1  0.83246500  0.13304200  0.56773500  1
  C  1177  1  0.88571500  0.17068900  0.58987000  1
  C  1178  1  0.87692700  0.18839900  0.58945500  1
  C  1179  1  0.89259600  0.19912200  0.60259600  1
  C  1180  1  0.91788000  0.19255600  0.61657000  1
  C  1181  1  0.92755000  0.17489600  0.61676100  1
  C  1182  1  0.91143800  0.16413900  0.60373000  1
  C  1189  1  0.93369000  0.20331500  0.62999300  1
  C  1190  1  0.82614500  0.12547200  0.53724300  1
  C  1193  1  0.33956900  0.36226400  0.44895100  1
  C  1194  1  0.36051300  0.34646900  0.45292600  1
  C  1195  1  0.37531600  0.33533900  0.43998200  1
  C  1196  1  0.36942900  0.33956900  0.42260600  1
  C  1197  1  0.34726300  0.35513000  0.41863800  1
  C  1198  1  0.33250100  0.36624800  0.43157300  1
  C  1201  1  0.38574500  0.32860400  0.40943300  1
  C  1202  1  0.37696700  0.31089300  0.40985000  1
  C  1203  1  0.39262200  0.30017000  0.39670700  1
  C  1204  1  0.41787800  0.30673900  0.38272600  1
  C  1205  1  0.42754500  0.32439900  0.38253500  1
  C  1206  1  0.41145100  0.33515500  0.39557000  1
  C  1213  1  0.43365800  0.29598900  0.36929200  1
  C  1214  1  0.32621700  0.37381700  0.46206900  1
  C  1217  1  0.27363800  0.08452000  0.17361900  1
  C  1218  1  0.30597000  0.07103400  0.17457100  1
  C  1219  1  0.34760200  0.07134600  0.16520600  1
  C  1220  1  0.35668800  0.08545000  0.15463500  1
  C  1221  1  0.32552300  0.09925600  0.15356200  1
  C  1222  1  0.28420100  0.09886400  0.16333400  1
  C  1225  1  0.23206600  0.08350400  0.18334300  1
  C  1226  1  0.20092800  0.06965500  0.18145000  1
  C  1227  1  0.16165700  0.06825700  0.19216000  1
  C  1228  1  0.15415200  0.08063500  0.20486300  1
  C  1229  1  0.18354100  0.09489600  0.20658100  1
  C  1230  1  0.22295800  0.09589900  0.19597300  1
  C  1245  1  0.77367300  0.41477900  0.18220100  1
  C  1246  1  0.80603200  0.42825500  0.18124600  1
  C  1247  1  0.84764900  0.42793800  0.19062100  1
  C  1248  1  0.85672100  0.41382900  0.20118500  1
  C  1249  1  0.82553900  0.40002900  0.20225300  1
  C  1250  1  0.78421300  0.40043100  0.19248400  1
  C  1253  1  0.73211500  0.41580200  0.17246900  1
  C  1254  1  0.70099200  0.42965700  0.17436500  1
  C  1255  1  0.66172500  0.43106300  0.16365300  1
  C  1256  1  0.65420400  0.41868500  0.15095000  1
  C  1257  1  0.68356200  0.40441300  0.14923900  1
  C  1258  1  0.72299100  0.40340900  0.15983900  1
  C  1273  1  0.52355800  0.25396100  0.01304980  1
  C  1274  1  0.55590000  0.25300700  0.99956700  1
  C  1275  1  0.59752000  0.26237800  0.99987900  1
  C  1276  1  0.60658800  0.27295400  0.01397980  1
  C  1277  1  0.57541400  0.27402900  0.02778180  1
  C  1278  1  0.53410100  0.26425100  0.02739080  1
  C  1281  1  0.48199600  0.24423100  0.01202880  1
  C  1282  1  0.45087400  0.24612100  0.99817600  1
  C  1283  1  0.41163100  0.23539900  0.99676600  1
  C  1284  1  0.40414400  0.22268600  0.00913484  1
  C  1285  1  0.43352600  0.22096800  0.02339980  1
  C  1286  1  0.47290700  0.23159300  0.02441680  1
  C  1301  1  0.02358500  0.24535400  0.34277000  1
  C  1302  1  0.05594700  0.24631200  0.35624600  1
  C  1303  1  0.09755300  0.23693000  0.35593100  1
  C  1304  1  0.10661700  0.22636100  0.34182700  1
  C  1305  1  0.07543500  0.22529200  0.32802600  1
  C  1306  1  0.03411500  0.23506600  0.32842500  1
  C  1309  1  0.98203300  0.25508700  0.34379800  1
  C  1310  1  0.95092000  0.25319000  0.35765400  1
  C  1311  1  0.91168100  0.26391400  0.35907500  1
  C  1312  1  0.90418400  0.27663000  0.34671000  1
  C  1313  1  0.93352800  0.27834400  0.33243500  1
  C  1314  1  0.97292600  0.26772900  0.33141500  1
  C  1329  1  0.72596800  0.91404400  0.18185000  1
  C  1330  1  0.69322200  0.92735900  0.18042400  1
  C  1331  1  0.64962100  0.92664500  0.18856400  1
  C  1332  1  0.63980200  0.91224600  0.19871600  1
  C  1333  1  0.67182100  0.89881800  0.20068400  1
  C  1334  1  0.71458400  0.89958500  0.19184600  1
  C  1337  1  0.76868900  0.91512000  0.17275900  1
  C  1338  1  0.79931400  0.92914700  0.17465100  1
  C  1339  1  0.84070900  0.93011000  0.16493000  1
  C  1340  1  0.84984000  0.91718000  0.15288600  1
  C  1341  1  0.82030900  0.90302500  0.15081400  1
  C  1342  1  0.77952600  0.90236700  0.16068300  1
  C  1357  1  0.22595100  0.58525200  0.17397100  1
  C  1358  1  0.19319100  0.57194100  0.17539100  1
  C  1359  1  0.14962200  0.57265500  0.16723100  1
  C  1360  1  0.13980800  0.58706100  0.15708900  1
  C  1361  1  0.17183100  0.60049100  0.15513900  1
  C  1362  1  0.21458500  0.59971700  0.16398000  1
  C  1365  1  0.26865200  0.58417000  0.18307700  1
  C  1366  1  0.29927600  0.57014300  0.18118100  1
  C  1367  1  0.34065100  0.56917000  0.19091400  1
  C  1368  1  0.34978600  0.58210200  0.20295500  1
  C  1369  1  0.32027300  0.59626200  0.20502100  1
  C  1370  1  0.27948200  0.59691900  0.19515700  1
  C  1385  1  0.47573500  0.74543000  0.34311000  1
  C  1386  1  0.44349400  0.74635700  0.35662800  1
  C  1387  1  0.40184900  0.73699900  0.35633200  1
  C  1388  1  0.39264600  0.72646300  0.34221400  1
  C  1389  1  0.42370700  0.72541600  0.32837400  1
  C  1390  1  0.46504700  0.73518200  0.32875100  1
  C  1393  1  0.51730700  0.75516100  0.34409800  1
  C  1394  1  0.54849600  0.75330000  0.35793800  1
  C  1395  1  0.58778400  0.76400800  0.35929000  1
  C  1396  1  0.59526300  0.77668300  0.34687800  1
  C  1397  1  0.56584000  0.77835400  0.33262500  1
  C  1398  1  0.52640000  0.76775700  0.33166700  1
  C  1413  1  0.97570900  0.75385600  0.01271280  1
  C  1414  1  0.94344400  0.75292500  0.99920300  1
  C  1415  1  0.90181600  0.76229300  0.99950000  1
  C  1416  1  0.89261700  0.77282300  0.01362180  1
  C  1417  1  0.92368800  0.77386500  0.02745780  1
  C  1418  1  0.96503100  0.76410200  0.02707380  1
  C  1421  1  0.01727000  0.74412100  0.01171780  1
  C  1422  1  0.04844400  0.74598600  0.99787500  1
  C  1423  1  0.08773300  0.73527800  0.99651400  1
  C  1424  1  0.09523400  0.72260600  0.00892584  1
  C  1425  1  0.06584300  0.72093900  0.02319080  1
  C  1426  1  0.02638900  0.73152900  0.02414980  1
  C  1441  1  0.77350000  0.58447500  0.67369100  1
  C  1442  1  0.80575100  0.57096300  0.67462100  1
  C  1443  1  0.84740000  0.57126500  0.66526600  1
  C  1444  1  0.85660000  0.58538400  0.65473100  1
  C  1445  1  0.82552200  0.59921800  0.65368100  1
  C  1446  1  0.78417800  0.59883600  0.66344500  1
  C  1449  1  0.73193500  0.58348500  0.68342300  1
  C  1450  1  0.70074600  0.56964700  0.68156300  1
  C  1451  1  0.66145200  0.56829900  0.69227000  1
  C  1452  1  0.65396500  0.58071400  0.70493900  1
  C  1453  1  0.68339500  0.59496600  0.70660800  1
  C  1454  1  0.72283500  0.59592000  0.69601300  1
  C  1469  1  0.27353400  0.91482300  0.68212600  1
  C  1470  1  0.30581100  0.92832800  0.68119500  1
  C  1471  1  0.34744000  0.92802000  0.69056000  1
  C  1472  1  0.35662900  0.91389500  0.70108700  1
  C  1473  1  0.32553700  0.90006600  0.70212900  1
  C  1474  1  0.28419100  0.90045800  0.69236800  1
  C  1477  1  0.23198300  0.91582200  0.67238600  1
  C  1478  1  0.20080200  0.92966200  0.67425100  1
  C  1479  1  0.16151600  0.93102000  0.66354200  1
  C  1480  1  0.15402500  0.91860900  0.65086700  1
  C  1481  1  0.18342700  0.90434800  0.64920100  1
  C  1482  1  0.22288100  0.90339300  0.65979100  1
  C  1497  1  0.02329200  0.75359000  0.51354400  1
  C  1498  1  0.05605000  0.75216400  0.50023300  1
  C  1499  1  0.09965100  0.76030000  0.50095800  1
  C  1500  1  0.10946600  0.77045000  0.51535900  1
  C  1501  1  0.07742900  0.77241600  0.52878200  1
  C  1502  1  0.03466500  0.76358300  0.52800600  1
  C  1505  1  0.98057500  0.74449900  0.51246300  1
  C  1506  1  0.94995100  0.74639400  0.49843700  1
  C  1507  1  0.90855200  0.73667300  0.49747500  1
  C  1508  1  0.89941400  0.72463200  0.51040600  1
  C  1509  1  0.92894900  0.72256100  0.52456100  1
  C  1510  1  0.96973800  0.73242500  0.52521800  1
  C  1525  1  0.52330200  0.74572100  0.84228000  1
  C  1526  1  0.55606900  0.74714200  0.85558700  1
  C  1527  1  0.59964200  0.73898700  0.85486700  1
  C  1528  1  0.60945800  0.72884800  0.84045800  1
  C  1529  1  0.57742500  0.72689800  0.82703200  1
  C  1530  1  0.53466200  0.73573400  0.82781200  1
  C  1533  1  0.48059800  0.75482300  0.84336800  1
  C  1534  1  0.44998100  0.75292300  0.85739400  1
  C  1535  1  0.40859500  0.76265200  0.85836700  1
  C  1536  1  0.39944400  0.77469000  0.84543400  1
  C  1537  1  0.42895700  0.77675600  0.83127300  1
  C  1538  1  0.46975800  0.76689900  0.83061700  1
  C  1553  1  0.22604200  0.41407800  0.68175400  1
  C  1554  1  0.19336600  0.42741900  0.68035200  1
  C  1555  1  0.14974800  0.42671200  0.68847700  1
  C  1556  1  0.13981700  0.41229400  0.69858500  1
  C  1557  1  0.17175800  0.39883700  0.70052500  1
  C  1558  1  0.21454700  0.39960000  0.69170400  1
  C  1561  1  0.26877700  0.41513900  0.67266500  1
  C  1562  1  0.29943400  0.42915900  0.67453900  1
  C  1563  1  0.34085200  0.43009100  0.66482500  1
  C  1564  1  0.34999100  0.41713800  0.65280500  1
  C  1565  1  0.32044600  0.40298300  0.65077500  1
  C  1566  1  0.27962800  0.40235800  0.66062200  1
  C  1581  1  0.72602700  0.08521700  0.67406800  1
  C  1582  1  0.69333200  0.07188200  0.67546500  1
  C  1583  1  0.64974600  0.07258900  0.66732000  1
  C  1584  1  0.63982300  0.08701400  0.65722000  1
  C  1585  1  0.67176600  0.10047200  0.65529900  1
  C  1586  1  0.71455300  0.09970200  0.66412100  1
  C  1589  1  0.76873800  0.08414900  0.68317000  1
  C  1590  1  0.79939300  0.07012900  0.68129400  1
  C  1591  1  0.84079200  0.06918600  0.69101900  1
  C  1592  1  0.84993700  0.08214200  0.70303400  1
  C  1593  1  0.82041600  0.09630400  0.70506000  1
  C  1594  1  0.77958800  0.09692800  0.69521600  1
  C  1609  1  0.97597600  0.24580600  0.84260600  1
  C  1610  1  0.94329500  0.24720600  0.85594600  1
  C  1611  1  0.89967000  0.23908500  0.85523500  1
  C  1612  1  0.88974000  0.22897900  0.84081300  1
  C  1613  1  0.92169000  0.22703900  0.82735800  1
  C  1614  1  0.96448100  0.23585700  0.82812500  1
  C  1617  1  0.01870400  0.25490000  0.84366300  1
  C  1618  1  0.04938100  0.25303200  0.85767700  1
  C  1619  1  0.09081400  0.26273900  0.85859200  1
  C  1620  1  0.09995000  0.27474500  0.84562600  1
  C  1621  1  0.07038500  0.27677200  0.83147600  1
  C  1622  1  0.02955000  0.26693300  0.83087100  1
  C  1637  1  0.47596000  0.25348300  0.51321400  1
  C  1638  1  0.44326900  0.25208900  0.49987800  1
  C  1639  1  0.39967200  0.26022900  0.50058700  1
  C  1640  1  0.38974600  0.27032400  0.51501600  1
  C  1641  1  0.42168900  0.27224500  0.52847400  1
  C  1642  1  0.46447900  0.26342800  0.52770100  1
  C  1645  1  0.51867500  0.24437900  0.51215300  1
  C  1646  1  0.54934700  0.24625200  0.49813700  1
  C  1647  1  0.59076700  0.23653700  0.49721000  1
  C  1648  1  0.59991200  0.22453400  0.51017800  1
  C  1649  1  0.57037100  0.22251200  0.52433400  1
  C  1650  1  0.52952500  0.23234400  0.52494000  1
  C  1665  1  0.07391300  0.03693600  0.17794000  1
  C  1666  1  0.02833600  0.03851500  0.17162500  1
  C  1667  1  0.99758700  0.02462800  0.17209600  1
  C  1668  1  0.01153200  0.00856600  0.17853300  1
  C  1669  1  0.05762900  0.00699800  0.18447600  1
  C  1670  1  0.08815700  0.02094100  0.18430700  1
  C  1673  1  0.98042000  0.99436700  0.17891100  1
  C  1674  1  0.94917600  0.99126800  0.16538600  1
  C  1675  1  0.91892100  0.97724500  0.16566800  1
  C  1676  1  0.91896600  0.96549000  0.17935600  1
  C  1677  1  0.94966000  0.96878200  0.19302700  1
  C  1678  1  0.97971000  0.98287900  0.19280600  1
  C  1685  1  0.88868100  0.95104500  0.17971400  1
  C  1686  1  0.10469800  0.05103600  0.17785800  1
  C  1689  1  0.57394600  0.46237000  0.17787000  1
  C  1690  1  0.52837600  0.46078700  0.18419000  1
  C  1691  1  0.49761700  0.47467000  0.18372400  1
  C  1692  1  0.51154800  0.49073600  0.17728800  1
  C  1693  1  0.55763700  0.49230700  0.17134000  1
  C  1694  1  0.58817500  0.47836700  0.17150400  1
  C  1697  1  0.48042200  0.50493200  0.17691500  1
  C  1698  1  0.44918500  0.50802400  0.19044400  1
  C  1699  1  0.41891000  0.52204200  0.19016300  1
  C  1700  1  0.41892700  0.53379700  0.17647600  1
  C  1701  1  0.44961700  0.53051200  0.16280200  1
  C  1702  1  0.47968800  0.51642000  0.16302100  1
  C  1709  1  0.38858300  0.54822700  0.17612100  1
  C  1710  1  0.60474400  0.44827300  0.17795300  1
  C  1713  1  0.32391600  0.24962000  0.96543400  1
  C  1714  1  0.27832800  0.25592800  0.96700500  1
  C  1715  1  0.24761600  0.25547100  0.95310700  1
  C  1716  1  0.26161300  0.24905800  0.93704200  1
  C  1717  1  0.30771500  0.24311900  0.93548400  1
  C  1718  1  0.33820500  0.24327400  0.94943800  1
  C  1721  1  0.23054000  0.24870200  0.92283100  1
  C  1722  1  0.19932100  0.26223600  0.91973600  1
  C  1723  1  0.16909600  0.26197100  0.90570500  1
  C  1724  1  0.16914500  0.24829400  0.89393900  1
  C  1725  1  0.19982100  0.23461500  0.89722300  1
  C  1726  1  0.22984600  0.23481900  0.91132700  1
  C  1733  1  0.13885100  0.24794800  0.87949700  1
  C  1734  1  0.35466700  0.24969800  0.97954500  1
  C  1737  1  0.82393600  0.24968900  0.39039000  1
  C  1738  1  0.77835300  0.24338000  0.38881400  1
  C  1739  1  0.74763100  0.24383000  0.40271100  1
  C  1740  1  0.76161800  0.25023900  0.41877800  1
  C  1741  1  0.80771700  0.25618100  0.42034200  1
  C  1742  1  0.83821400  0.25603100  0.40639000  1
  C  1745  1  0.73053300  0.25059100  0.43298700  1
  C  1746  1  0.69931700  0.23705500  0.43607500  1
  C  1747  1  0.66907000  0.23731900  0.45010100  1
  C  1748  1  0.66909700  0.25099500  0.46186800  1
  C  1749  1  0.69977700  0.26467400  0.45859100  1
  C  1750  1  0.72982400  0.26447200  0.44449200  1
  C  1757  1  0.63875300  0.25133800  0.47629500  1
  C  1758  1  0.85469900  0.24961500  0.37628300  1
  C  1761  1  0.92659800  0.46249900  0.17671700  1
  C  1762  1  0.96728800  0.46294600  0.16675800  1
  C  1763  1  0.99745900  0.47698500  0.16755500  1
  C  1764  1  0.98750800  0.49123600  0.17800400  1
  C  1765  1  0.94613700  0.49081800  0.18767600  1
  C  1766  1  0.91639100  0.47665900  0.18715700  1
  C  1769  1  0.01797200  0.50559600  0.17874100  1
  C  1770  1  0.04019700  0.51185700  0.16395200  1
  C  1771  1  0.07008300  0.52597300  0.16468500  1
  C  1772  1  0.07864700  0.53461800  0.18019800  1
  C  1773  1  0.05685800  0.52820600  0.19502200  1
  C  1774  1  0.02714500  0.51403700  0.19430800  1
  C  1781  1  0.10943600  0.54886900  0.18113700  1
  C  1782  1  0.89622700  0.44831500  0.17606700  1
  C  1785  1  0.42653800  0.03678300  0.17910500  1
  C  1786  1  0.46723100  0.03634600  0.18906000  1
  C  1787  1  0.49743300  0.02231500  0.18826100  1
  C  1788  1  0.48750700  0.00806400  0.17781000  1
  C  1789  1  0.44613200  0.00847000  0.16814100  1
  C  1790  1  0.41635500  0.02262000  0.16866300  1
  C  1793  1  0.51800000  0.99371000  0.17707100  1
  C  1794  1  0.54023400  0.98745200  0.19185800  1
  C  1795  1  0.57013900  0.97334300  0.19112300  1
  C  1796  1  0.57870900  0.96469900  0.17560900  1
  C  1797  1  0.55691400  0.97111000  0.16078600  1
  C  1798  1  0.52718200  0.98527500  0.16150200  1
  C  1805  1  0.60951000  0.95045100  0.17467000  1
  C  1806  1  0.39613200  0.05095800  0.17975500  1
  C  1809  1  0.67648000  0.24847100  0.96533100  1
  C  1810  1  0.71721800  0.23854000  0.96491500  1
  C  1811  1  0.74744100  0.23934600  0.95089100  1
  C  1812  1  0.73749400  0.24977800  0.93662900  1
  C  1813  1  0.69607000  0.25942000  0.93701400  1
  C  1814  1  0.66627300  0.25889300  0.95115700  1
  C  1817  1  0.76801400  0.25052800  0.92228600  1
  C  1818  1  0.79032800  0.23575000  0.91604300  1
  C  1819  1  0.82026800  0.23649600  0.90194500  1
  C  1820  1  0.82880300  0.25201100  0.89330200  1
  C  1821  1  0.80693500  0.26682600  0.89969800  1
  C  1822  1  0.77716200  0.26609900  0.91384800  1
  C  1829  1  0.85962800  0.25295700  0.87906300  1
  C  1830  1  0.64606700  0.24782300  0.97950300  1
  C  1833  1  0.17652500  0.25084000  0.39047800  1
  C  1834  1  0.21726500  0.26077000  0.39090200  1
  C  1835  1  0.24746600  0.25996400  0.40493200  1
  C  1836  1  0.23749500  0.24953300  0.41919300  1
  C  1837  1  0.19606900  0.23989200  0.41880000  1
  C  1838  1  0.16629300  0.24041900  0.40465100  1
  C  1841  1  0.26799800  0.24878200  0.43354100  1
  C  1842  1  0.29030900  0.26355900  0.43978500  1
  C  1843  1  0.32023700  0.26281100  0.45388800  1
  C  1844  1  0.32875900  0.24729600  0.46253200  1
  C  1845  1  0.30688800  0.23248300  0.45613400  1
  C  1846  1  0.27712900  0.23321000  0.44198000  1
  C  1853  1  0.35957100  0.24634600  0.47677400  1
  C  1854  1  0.14614200  0.25148900  0.37629900  1
  C  1857  1  0.67552100  0.74978300  0.39061200  1
  C  1858  1  0.72109800  0.74346400  0.38904300  1
  C  1859  1  0.75180900  0.74391700  0.40294200  1
  C  1860  1  0.73781900  0.75033600  0.41900600  1
  C  1861  1  0.69172000  0.75628200  0.42056200  1
  C  1862  1  0.66123300  0.75613300  0.40660700  1
  C  1865  1  0.76889300  0.75069700  0.43321600  1
  C  1866  1  0.80013700  0.73717100  0.43630900  1
  C  1867  1  0.83037100  0.73744200  0.45033800  1
  C  1868  1  0.83029800  0.75112000  0.46210600  1
  C  1869  1  0.79960100  0.76479000  0.45882300  1
  C  1870  1  0.76957500  0.76458000  0.44471900  1
  C  1877  1  0.86057600  0.75146900  0.47655400  1
  C  1878  1  0.64477200  0.74971200  0.37650200  1
  C  1881  1  0.17549700  0.74950500  0.96520800  1
  C  1882  1  0.22106800  0.75582700  0.96678100  1
  C  1883  1  0.25178700  0.75537900  0.95288500  1
  C  1884  1  0.23781000  0.74896400  0.93681800  1
  C  1885  1  0.19171700  0.74301400  0.93525700  1
  C  1886  1  0.16122300  0.74315800  0.94921000  1
  C  1889  1  0.26889700  0.74860600  0.92261000  1
  C  1890  1  0.30013700  0.76213600  0.91952300  1
  C  1891  1  0.33038900  0.76186700  0.90550000  1
  C  1892  1  0.33034200  0.74819100  0.89373100  1
  C  1893  1  0.29964300  0.73451800  0.89700800  1
  C  1894  1  0.26959600  0.73472500  0.91110500  1
  C  1901  1  0.36066800  0.74784500  0.87929900  1
  C  1902  1  0.14473600  0.74957500  0.97931400  1
  C  1905  1  0.32291200  0.75088900  0.39088800  1
  C  1906  1  0.28214700  0.76080700  0.39129400  1
  C  1907  1  0.25191000  0.75999600  0.40531200  1
  C  1908  1  0.26186700  0.74957400  0.41958000  1
  C  1909  1  0.30331200  0.73994400  0.41920500  1
  C  1910  1  0.33312600  0.74047700  0.40506700  1
  C  1913  1  0.23134200  0.74882400  0.43392100  1
  C  1914  1  0.20901100  0.76360200  0.44015700  1
  C  1915  1  0.17908600  0.76285800  0.45426000  1
  C  1916  1  0.17058800  0.74734800  0.46291600  1
  C  1917  1  0.19246800  0.73253400  0.45652500  1
  C  1918  1  0.22222500  0.73325700  0.44237000  1
  C  1925  1  0.13977900  0.74640500  0.47716000  1
  C  1926  1  0.35333800  0.75154300  0.37672000  1
  C  1929  1  0.82286700  0.74839800  0.96494700  1
  C  1930  1  0.78209800  0.73848300  0.96453400  1
  C  1931  1  0.75188200  0.73929400  0.95051000  1
  C  1932  1  0.76186400  0.74971600  0.93624100  1
  C  1933  1  0.80331100  0.75934300  0.93662500  1
  C  1934  1  0.83310900  0.75880900  0.95076800  1
  C  1937  1  0.73135700  0.75046500  0.92189700  1
  C  1938  1  0.70902500  0.73569000  0.91566000  1
  C  1939  1  0.67911000  0.73643400  0.90155300  1
  C  1940  1  0.67062700  0.75194500  0.89289500  1
  C  1941  1  0.69251600  0.76675900  0.89928700  1
  C  1942  1  0.72225700  0.76603400  0.91344600  1
  C  1949  1  0.63983300  0.75289100  0.87864900  1
  C  1950  1  0.85326300  0.74774400  0.97912200  1
  C  1953  1  0.57370000  0.53699400  0.67802900  1
  C  1954  1  0.52811000  0.53856300  0.67172500  1
  C  1955  1  0.49742300  0.52465600  0.67216300  1
  C  1956  1  0.51145800  0.50858600  0.67855300  1
  C  1957  1  0.55756800  0.50703000  0.68448400  1
  C  1958  1  0.58803000  0.52099300  0.68434900  1
  C  1961  1  0.48041100  0.49436700  0.67890000  1
  C  1962  1  0.44917800  0.49127800  0.66537000  1
  C  1963  1  0.41899300  0.47723400  0.66562500  1
  C  1964  1  0.41910000  0.46545300  0.67928900  1
  C  1965  1  0.44978300  0.46873200  0.69296500  1
  C  1966  1  0.47976700  0.48284900  0.69277000  1
  C  1973  1  0.38885300  0.45099700  0.67962600  1
  C  1974  1  0.60442900  0.55110900  0.67796900  1
  C  1977  1  0.07372900  0.96230800  0.67778400  1
  C  1978  1  0.02814300  0.96073400  0.68409100  1
  C  1979  1  0.99744900  0.97464000  0.68365900  1
  C  1980  1  0.01146700  0.99071300  0.67727000  1
  C  1981  1  0.05757300  0.99227300  0.67133600  1
  C  1982  1  0.08804300  0.97831300  0.67146400  1
  C  1985  1  0.98041300  0.00492900  0.67692900  1
  C  1986  1  0.94918300  0.00801200  0.69046200  1
  C  1987  1  0.91897300  0.02204900  0.69020800  1
  C  1988  1  0.91905300  0.03383100  0.67654500  1
  C  1989  1  0.94974000  0.03055800  0.66286700  1
  C  1990  1  0.97974500  0.01644800  0.66305900  1
  C  1997  1  0.88875000  0.04827100  0.67621000  1
  C  1998  1  0.10447100  0.94819600  0.67784100  1
  C  2001  1  0.42647600  0.96253400  0.67665200  1
  C  2002  1  0.46729700  0.96291800  0.66676600  1
  C  2003  1  0.49755100  0.97693100  0.66758300  1
  C  2004  1  0.48755500  0.99121300  0.67798200  1
  C  2005  1  0.44604900  0.99086000  0.68757800  1
  C  2006  1  0.41621700  0.97672800  0.68703800  1
  C  2009  1  0.51810300  0.00554400  0.67874600  1
  C  2010  1  0.54051800  0.01176600  0.66398000  1
  C  2011  1  0.57045000  0.02586500  0.66473600  1
  C  2012  1  0.57887500  0.03452800  0.68024900  1
  C  2013  1  0.55692400  0.02814800  0.69505300  1
  C  2014  1  0.52715800  0.01399700  0.69431600  1
  C  2021  1  0.60966200  0.04877500  0.68120200  1
  C  2022  1  0.39605500  0.94836700  0.67600400  1
  C  2025  1  0.92642200  0.53674900  0.67916800  1
  C  2026  1  0.96724600  0.53637500  0.68905300  1
  C  2027  1  0.99752800  0.52237100  0.68823200  1
  C  2028  1  0.98756000  0.50808800  0.67783200  1
  C  2029  1  0.94604700  0.50842900  0.66823900  1
  C  2030  1  0.91618700  0.52255300  0.66878100  1
  C  2033  1  0.01813400  0.49376300  0.67706700  1
  C  2034  1  0.04055700  0.48754500  0.69183200  1
  C  2035  1  0.07050900  0.47345100  0.69107400  1
  C  2036  1  0.07894200  0.46479100  0.67556000  1
  C  2037  1  0.05698500  0.47117000  0.66075600  1
  C  2038  1  0.02719800  0.48531500  0.66149400  1
  C  2045  1  0.10974100  0.45054800  0.67460700  1
  C  2046  1  0.89596400  0.55090600  0.67981700  1
  C  2049  1  0.41197700  0.19750500  0.06401780  1
  C  2050  1  0.39026800  0.20172000  0.07961880  1
  C  2051  1  0.37425400  0.18896900  0.09073980  1
  C  2052  1  0.37950100  0.17153300  0.08667580  1
  C  2053  1  0.40227200  0.16729000  0.07131180  1
  C  2054  1  0.41838000  0.18004200  0.06022780  1
  C  2057  1  0.36213600  0.15857700  0.09766380  1
  C  2058  1  0.37103800  0.15896300  0.11536600  1
  C  2059  1  0.35456600  0.14598900  0.12612200  1
  C  2060  1  0.32828000  0.13225200  0.11959500  1
  C  2061  1  0.31837900  0.13212100  0.10195400  1
  C  2062  1  0.33539300  0.14496300  0.09115380  1
  C  2069  1  0.31216100  0.11892100  0.13038800  1
  C  2070  1  0.42651700  0.21049900  0.05249180  1
  C  2073  1  0.91193000  0.30180100  0.29182100  1
  C  2074  1  0.89017600  0.29758100  0.27622900  1
  C  2075  1  0.87414800  0.31032800  0.26510700  1
  C  2076  1  0.87942600  0.32776700  0.26916000  1
  C  2077  1  0.90224200  0.33201200  0.28451500  1
  C  2078  1  0.91836100  0.31926400  0.29559900  1
  C  2081  1  0.86206500  0.34072000  0.25817000  1
  C  2082  1  0.87094300  0.34032700  0.24046800  1
  C  2083  1  0.85449500  0.35330400  0.22971000  1
  C  2084  1  0.82825900  0.36705400  0.23623900  1
  C  2085  1  0.81837100  0.36719200  0.25388000  1
  C  2086  1  0.83536200  0.35434400  0.26468100  1
  C  2093  1  0.81218200  0.38039800  0.22545400  1
  C  2094  1  0.92650500  0.28881200  0.30335000  1
  C  2097  1  0.66194000  0.36376200  0.12584700  1
  C  2098  1  0.64024100  0.34816800  0.13009900  1
  C  2099  1  0.62420200  0.33702100  0.11737500  1
  C  2100  1  0.62941800  0.34105000  0.09992780  1
  C  2101  1  0.65217200  0.35640700  0.09564980  1
  C  2102  1  0.66830500  0.36751500  0.10837700  1
  C  2105  1  0.61204000  0.33003200  0.08699980  1
  C  2106  1  0.62094500  0.31233200  0.08742180  1
  C  2107  1  0.60446000  0.30154700  0.07447380  1
  C  2108  1  0.57815500  0.30804500  0.06072580  1
  C  2109  1  0.56824900  0.32568400  0.06055880  1
  C  2110  1  0.58527800  0.33651300  0.07337580  1
  C  2117  1  0.56202900  0.29722300  0.04741880  1
  C  2118  1  0.67653500  0.37531300  0.13881300  1
  C  2121  1  0.16190600  0.13554600  0.22997400  1
  C  2122  1  0.14019100  0.15113600  0.22572400  1
  C  2123  1  0.12415700  0.16228200  0.23844800  1
  C  2124  1  0.12939100  0.15825600  0.25589500  1
  C  2125  1  0.15216500  0.14290200  0.26017200  1
  C  2126  1  0.16829000  0.13179300  0.24744500  1
  C  2129  1  0.11201800  0.16927300  0.26882500  1
  C  2130  1  0.12090300  0.18697400  0.26839800  1
  C  2131  1  0.10443300  0.19775900  0.28135000  1
  C  2132  1  0.07816600  0.19125900  0.29510600  1
  C  2133  1  0.06827700  0.17361800  0.29527700  1
  C  2134  1  0.08528600  0.16279000  0.28245600  1
  C  2141  1  0.06207300  0.20207000  0.30842600  1
  C  2142  1  0.17647700  0.12399400  0.21700500  1
  C  2145  1  0.58718900  0.80153100  0.29184500  1
  C  2146  1  0.60924700  0.79728200  0.27632100  1
  C  2147  1  0.62467700  0.81001100  0.26506300  1
  C  2148  1  0.61842600  0.82745900  0.26889500  1
  C  2149  1  0.59533600  0.83171400  0.28419400  1
  C  2150  1  0.57987200  0.81898500  0.29542700  1
  C  2153  1  0.63515000  0.84041000  0.25775700  1
  C  2154  1  0.62691900  0.83965200  0.24002200  1
  C  2155  1  0.64287900  0.85259400  0.22911600  1
  C  2156  1  0.66793100  0.86669700  0.23552200  1
  C  2157  1  0.67709300  0.86722100  0.25321400  1
  C  2158  1  0.66065200  0.85439500  0.26415100  1
  C  2165  1  0.68388300  0.87994800  0.22458000  1
  C  2166  1  0.57305700  0.78858000  0.30348200  1
  C  2169  1  0.08722400  0.69777200  0.06397280  1
  C  2170  1  0.10930000  0.70202200  0.07949280  1
  C  2171  1  0.12474800  0.68929500  0.09074880  1
  C  2172  1  0.11849700  0.67184700  0.08691980  1
  C  2173  1  0.09539100  0.66758900  0.07162480  1
  C  2174  1  0.07990800  0.68031600  0.06039380  1
  C  2177  1  0.13522500  0.65889700  0.09805880  1
  C  2178  1  0.12699900  0.65965700  0.11579500  1
  C  2179  1  0.14293700  0.64671100  0.12670000  1
  C  2180  1  0.16796300  0.63260100  0.12029300  1
  C  2181  1  0.17712600  0.63207700  0.10260200  1
  C  2182  1  0.16070900  0.64490700  0.09166480  1
  C  2189  1  0.18387300  0.61933600  0.13122600  1
  C  2190  1  0.07305500  0.71071800  0.05233580  1
  C  2193  1  0.33954400  0.63683900  0.22885000  1
  C  2194  1  0.36002800  0.65272100  0.22488900  1
  C  2195  1  0.37542700  0.66373900  0.23783300  1
  C  2196  1  0.37067100  0.65929400  0.25520100  1
  C  2197  1  0.34894500  0.64365500  0.25917700  1
  C  2198  1  0.33352300  0.63266300  0.24623900  1
  C  2201  1  0.38764100  0.67013900  0.26835200  1
  C  2202  1  0.37811300  0.68780000  0.26829400  1
  C  2203  1  0.39432800  0.69840400  0.28143800  1
  C  2204  1  0.42095200  0.69176200  0.29503400  1
  C  2205  1  0.43142500  0.67416700  0.29484900  1
  C  2206  1  0.41470800  0.66351900  0.28182900  1
  C  2213  1  0.43698400  0.70240100  0.30850200  1
  C  2214  1  0.32574100  0.62537700  0.21570600  1
  C  2217  1  0.83959800  0.86245000  0.12698200  1
  C  2218  1  0.86008200  0.84656600  0.13093900  1
  C  2219  1  0.87547300  0.83555100  0.11799200  1
  C  2220  1  0.87071400  0.84000000  0.10062500  1
  C  2221  1  0.84898800  0.85563900  0.09665280  1
  C  2222  1  0.83357600  0.86663000  0.10959400  1
  C  2225  1  0.88767700  0.82915600  0.08747180  1
  C  2226  1  0.87815600  0.81149400  0.08752980  1
  C  2227  1  0.89435100  0.80089200  0.07438080  1
  C  2228  1  0.92094600  0.80753700  0.06077980  1
  C  2229  1  0.93141600  0.82513100  0.06096380  1
  C  2230  1  0.91472000  0.83577700  0.07398880  1
  C  2237  1  0.93694400  0.79690900  0.04729680  1
  C  2238  1  0.82581600  0.87390700  0.14013100  1
  C  2241  1  0.90967700  0.69875700  0.56514700  1
  C  2242  1  0.88913500  0.70272000  0.58101800  1
  C  2243  1  0.87373600  0.68977400  0.59203500  1
  C  2244  1  0.87855400  0.67240600  0.58759800  1
  C  2245  1  0.90034500  0.66843000  0.57197200  1
  C  2246  1  0.91576500  0.68136900  0.56097900  1
  C  2249  1  0.86156600  0.65925500  0.59843500  1
  C  2250  1  0.87104300  0.65931600  0.61610000  1
  C  2251  1  0.85482100  0.64616800  0.62669700  1
  C  2252  1  0.82824200  0.63256800  0.62004100  1
  C  2253  1  0.81781400  0.63274800  0.60244400  1
  C  2254  1  0.83454100  0.64577300  0.59180300  1
  C  2261  1  0.81222000  0.61909200  0.63067300  1
  C  2262  1  0.92344200  0.71190000  0.55368200  1
  C  2265  1  0.40965100  0.80055000  0.79068600  1
  C  2266  1  0.38906700  0.79658300  0.77482400  1
  C  2267  1  0.37365100  0.80952500  0.76380600  1
  C  2268  1  0.37849000  0.82689400  0.76823400  1
  C  2269  1  0.40032700  0.83087500  0.78385100  1
  C  2270  1  0.41576300  0.81794000  0.79484200  1
  C  2273  1  0.36150300  0.84004300  0.75739500  1
  C  2274  1  0.37095500  0.83997400  0.73972800  1
  C  2275  1  0.35475300  0.85312500  0.72913000  1
  C  2276  1  0.32822200  0.86673700  0.73578700  1
  C  2277  1  0.31780900  0.86656200  0.75338500  1
  C  2278  1  0.33451400  0.85353500  0.76402600  1
  C  2285  1  0.31224200  0.88022500  0.72516400  1
  C  2286  1  0.42345400  0.78741400  0.80215400  1
  C  2289  1  0.16207400  0.86355800  0.62606000  1
  C  2290  1  0.13993100  0.84805200  0.63031400  1
  C  2291  1  0.12448300  0.83679300  0.61758900  1
  C  2292  1  0.13080500  0.84060800  0.60014200  1
  C  2293  1  0.15398600  0.85588600  0.59588000  1
  C  2294  1  0.16946700  0.86711900  0.60860600  1
  C  2297  1  0.11406000  0.82947300  0.58719300  1
  C  2298  1  0.12222900  0.81173400  0.58796200  1
  C  2299  1  0.10626700  0.80083200  0.57501900  1
  C  2300  1  0.08127700  0.80724700  0.56090400  1
  C  2301  1  0.07217100  0.82494200  0.56037100  1
  C  2302  1  0.08861300  0.83587500  0.57319800  1
  C  2309  1  0.06534300  0.79630900  0.54764800  1
  C  2310  1  0.17622400  0.87520000  0.63900000  1
  C  2313  1  0.66204700  0.63576100  0.72975200  1
  C  2314  1  0.63991600  0.65127000  0.72550000  1
  C  2315  1  0.62446500  0.66252400  0.73822700  1
  C  2316  1  0.63077900  0.65870400  0.75567500  1
  C  2317  1  0.65395100  0.64342400  0.75993300  1
  C  2318  1  0.66943000  0.63219200  0.74720500  1
  C  2321  1  0.61403700  0.66983800  0.76862500  1
  C  2322  1  0.62219800  0.68757600  0.76785800  1
  C  2323  1  0.60624900  0.69847700  0.78080400  1
  C  2324  1  0.58127700  0.69206000  0.79492300  1
  C  2325  1  0.57217000  0.67436500  0.79545400  1
  C  2326  1  0.58859700  0.66343300  0.78262100  1
  C  2333  1  0.56537300  0.70298700  0.80819200  1
  C  2334  1  0.67617900  0.62412200  0.71680600  1
  C  2337  1  0.08950500  0.30026900  0.79071900  1
  C  2338  1  0.11039400  0.29626400  0.77492200  1
  C  2339  1  0.12520400  0.30918600  0.76376800  1
  C  2340  1  0.11937800  0.32657100  0.76797300  1
  C  2341  1  0.09727200  0.33056900  0.78353800  1
  C  2342  1  0.08250400  0.31765700  0.79468100  1
  C  2345  1  0.13570500  0.33971900  0.75698100  1
  C  2346  1  0.12690400  0.33927400  0.73927200  1
  C  2347  1  0.14259800  0.35238700  0.72852200  1
  C  2348  1  0.16791800  0.36636700  0.73505800  1
  C  2349  1  0.17759800  0.36659000  0.75271800  1
  C  2350  1  0.16146600  0.35358400  0.76350000  1
  C  2357  1  0.18375300  0.37976400  0.72427100  1
  C  2358  1  0.07613500  0.28717300  0.80229100  1
  C  2361  1  0.58952500  0.19902300  0.56509200  1
  C  2362  1  0.61045100  0.20303400  0.58088200  1
  C  2363  1  0.62528200  0.19011500  0.59203600  1
  C  2364  1  0.61944000  0.17272800  0.58784000  1
  C  2365  1  0.59729500  0.16872500  0.57228400  1
  C  2366  1  0.58250600  0.18163500  0.56114000  1
  C  2369  1  0.63577300  0.15958300  0.59883200  1
  C  2370  1  0.62699200  0.16003400  0.61654200  1
  C  2371  1  0.64266800  0.14691800  0.62729400  1
  C  2372  1  0.66795200  0.13292900  0.62075500  1
  C  2373  1  0.67761900  0.13270200  0.60309500  1
  C  2374  1  0.66150300  0.14571000  0.59231300  1
  C  2381  1  0.68374500  0.11951900  0.63153300  1
  C  2382  1  0.57612000  0.21211400  0.55351700  1
  C  2385  1  0.83952200  0.13702500  0.72861700  1
  C  2386  1  0.86046200  0.15282000  0.72464200  1
  C  2387  1  0.87526900  0.16395200  0.73758400  1
  C  2388  1  0.86939200  0.15972200  0.75496200  1
  C  2389  1  0.84723400  0.14416100  0.75893000  1
  C  2390  1  0.83246500  0.13304200  0.74599600  1
  C  2393  1  0.88571500  0.17068900  0.76813100  1
  C  2394  1  0.87692700  0.18839900  0.76771600  1
  C  2395  1  0.89259600  0.19912200  0.78085700  1
  C  2396  1  0.91788000  0.19255600  0.79483100  1
  C  2397  1  0.92755000  0.17489600  0.79502200  1
  C  2398  1  0.91143800  0.16413900  0.78199100  1
  C  2405  1  0.93369000  0.20331500  0.80825400  1
  C  2406  1  0.82614500  0.12547200  0.71550400  1
  C  2409  1  0.33956900  0.36226400  0.62721200  1
  C  2410  1  0.36051300  0.34646900  0.63118700  1
  C  2411  1  0.37531600  0.33533900  0.61824300  1
  C  2412  1  0.36942900  0.33956900  0.60086700  1
  C  2413  1  0.34726300  0.35513000  0.59689900  1
  C  2414  1  0.33250100  0.36624800  0.60983400  1
  C  2417  1  0.38574500  0.32860400  0.58769400  1
  C  2418  1  0.37696700  0.31089300  0.58811100  1
  C  2419  1  0.39262200  0.30017000  0.57496800  1
  C  2420  1  0.41787800  0.30673900  0.56098700  1
  C  2421  1  0.42754500  0.32439900  0.56079600  1
  C  2422  1  0.41145100  0.33515500  0.57383100  1
  C  2429  1  0.43365800  0.29598900  0.54755300  1
  C  2430  1  0.32621700  0.37381700  0.64033000  1
  N  21  1  0.17449400  0.10673700  0.04075600  1
  N  23  1  0.13285000  0.05450400  0.01305500  1
  N  25  1  0.37731300  0.05780600  0.98714600  1
  N  27  1  0.33747200  0.11300000  0.96552300  1
  N  49  1  0.67448600  0.39256900  0.95854700  1
  N  51  1  0.63294500  0.44482500  0.98624200  1
  N  53  1  0.87739100  0.44146900  0.01215200  1
  N  55  1  0.83746300  0.38628200  0.03377100  1
  N  77  1  0.42449900  0.20852200  0.85697300  1
  N  79  1  0.38283700  0.23624300  0.80474800  1
  N  81  1  0.62724100  0.26217300  0.80808100  1
  N  83  1  0.58734400  0.28381800  0.86326100  1
  N  105  1  0.92448400  0.29079400  0.14234800  1
  N  107  1  0.88291800  0.26306100  0.19457900  1
  N  109  1  0.12729500  0.23714200  0.19120100  1
  N  111  1  0.08734500  0.21550300  0.13602600  1
  N  133  1  0.83015300  0.89113800  0.96024200  1
  N  135  1  0.86993900  0.94391300  0.98718300  1
  N  137  1  0.61854300  0.93994300  0.00986300  1
  N  139  1  0.65980100  0.88514900  0.03231800  1
  N  161  1  0.33012500  0.60814800  0.03907200  1
  N  163  1  0.36986800  0.55536200  0.01213100  1
  N  165  1  0.11852000  0.55936300  0.98941500  1
  N  167  1  0.15983100  0.61416500  0.96698600  1
  N  189  1  0.57482500  0.79073300  0.14246200  1
  N  191  1  0.61665700  0.76317800  0.19476400  1
  N  193  1  0.37220400  0.73719500  0.19162900  1
  N  195  1  0.41160700  0.71569700  0.13634400  1
  N  217  1  0.07486200  0.70856700  0.85683400  1
  N  219  1  0.11657600  0.73611700  0.80450900  1
  N  221  1  0.87214700  0.76208900  0.80768900  1
  N  223  1  0.91160500  0.78358600  0.86296700  1
  N  245  1  0.67439600  0.60688400  0.54070800  1
  N  247  1  0.63257100  0.55456800  0.51317200  1
  N  249  1  0.87706200  0.55771500  0.48720600  1
  N  251  1  0.83761200  0.61298900  0.46570500  1
  N  273  1  0.17441900  0.89243900  0.45857400  1
  N  275  1  0.13266000  0.94475800  0.48612500  1
  N  277  1  0.37713300  0.94156100  0.51209000  1
  N  279  1  0.33759900  0.88629300  0.53358600  1
  N  301  1  0.91910100  0.71025700  0.35819400  1
  N  303  1  0.87931900  0.73719400  0.30541400  1
  N  305  1  0.13074100  0.75986100  0.30940200  1
  N  307  1  0.08943200  0.78230900  0.36419100  1
  N  329  1  0.41909300  0.78905900  0.64112000  1
  N  331  1  0.37938000  0.76212200  0.69391200  1
  N  333  1  0.63074700  0.73943100  0.68989400  1
  N  335  1  0.58941400  0.71701000  0.63509600  1
  N  357  1  0.33025700  0.39103800  0.46026300  1
  N  359  1  0.37012800  0.44388000  0.48708500  1
  N  361  1  0.11873200  0.44002800  0.50979300  1
  N  363  1  0.15960700  0.38513500  0.53209100  1
  N  385  1  0.83023900  0.10825200  0.53904400  1
  N  387  1  0.87005300  0.05539200  0.51223000  1
  N  389  1  0.61870600  0.05928000  0.48948800  1
  N  391  1  0.65963800  0.11417900  0.46721300  1
  N  413  1  0.08020900  0.28899900  0.64124800  1
  N  415  1  0.12011800  0.26222400  0.69411200  1
  N  417  1  0.86863400  0.23951000  0.69028500  1
  N  419  1  0.90953500  0.21722400  0.63538800  1
  N  441  1  0.58021100  0.21028400  0.35803900  1
  N  443  1  0.62005200  0.23705900  0.30516200  1
  N  445  1  0.36862200  0.25979900  0.30902000  1
  N  447  1  0.40954700  0.28205800  0.36392600  1
  N  1237  1  0.17449400  0.10673700  0.21901700  1
  N  1239  1  0.13285000  0.05450400  0.19131600  1
  N  1241  1  0.37731300  0.05780600  0.16540700  1
  N  1243  1  0.33747200  0.11300000  0.14378400  1
  N  1265  1  0.67448600  0.39256900  0.13680800  1
  N  1267  1  0.63294500  0.44482500  0.16450300  1
  N  1269  1  0.87739100  0.44146900  0.19041300  1
  N  1271  1  0.83746300  0.38628200  0.21203200  1
  N  1293  1  0.42449900  0.20852200  0.03523380  1
  N  1295  1  0.38283700  0.23624300  0.98300900  1
  N  1297  1  0.62724100  0.26217300  0.98634200  1
  N  1299  1  0.58734400  0.28381800  0.04152180  1
  N  1321  1  0.92448400  0.29079400  0.32060900  1
  N  1323  1  0.88291800  0.26306100  0.37284000  1
  N  1325  1  0.12729500  0.23714200  0.36946200  1
  N  1327  1  0.08734500  0.21550300  0.31428700  1
  N  1349  1  0.83015300  0.89113800  0.13850300  1
  N  1351  1  0.86993900  0.94391300  0.16544400  1
  N  1353  1  0.61854300  0.93994300  0.18812400  1
  N  1355  1  0.65980100  0.88514900  0.21057900  1
  N  1377  1  0.33012500  0.60814800  0.21733300  1
  N  1379  1  0.36986800  0.55536200  0.19039200  1
  N  1381  1  0.11852000  0.55936300  0.16767600  1
  N  1383  1  0.15983100  0.61416500  0.14524700  1
  N  1405  1  0.57482500  0.79073300  0.32072300  1
  N  1407  1  0.61665700  0.76317800  0.37302500  1
  N  1409  1  0.37220400  0.73719500  0.36989000  1
  N  1411  1  0.41160700  0.71569700  0.31460500  1
  N  1433  1  0.07486200  0.70856700  0.03509480  1
  N  1435  1  0.11657600  0.73611700  0.98277000  1
  N  1437  1  0.87214700  0.76208900  0.98595000  1
  N  1439  1  0.91160500  0.78358600  0.04122780  1
  N  1461  1  0.67439600  0.60688400  0.71896900  1
  N  1463  1  0.63257100  0.55456800  0.69143300  1
  N  1465  1  0.87706200  0.55771500  0.66546700  1
  N  1467  1  0.83761200  0.61298900  0.64396600  1
  N  1489  1  0.17441900  0.89243900  0.63683500  1
  N  1491  1  0.13266000  0.94475800  0.66438600  1
  N  1493  1  0.37713300  0.94156100  0.69035100  1
  N  1495  1  0.33759900  0.88629300  0.71184700  1
  N  1517  1  0.91910100  0.71025700  0.53645500  1
  N  1519  1  0.87931900  0.73719400  0.48367500  1
  N  1521  1  0.13074100  0.75986100  0.48766300  1
  N  1523  1  0.08943200  0.78230900  0.54245200  1
  N  1545  1  0.41909300  0.78905900  0.81938100  1
  N  1547  1  0.37938000  0.76212200  0.87217300  1
  N  1549  1  0.63074700  0.73943100  0.86815500  1
  N  1551  1  0.58941400  0.71701000  0.81335700  1
  N  1573  1  0.33025700  0.39103800  0.63852400  1
  N  1575  1  0.37012800  0.44388000  0.66534600  1
  N  1577  1  0.11873200  0.44002800  0.68805400  1
  N  1579  1  0.15960700  0.38513500  0.71035200  1
  N  1601  1  0.83023900  0.10825200  0.71730500  1
  N  1603  1  0.87005300  0.05539200  0.69049100  1
  N  1605  1  0.61870600  0.05928000  0.66774900  1
  N  1607  1  0.65963800  0.11417900  0.64547400  1
  N  1629  1  0.08020900  0.28899900  0.81950900  1
  N  1631  1  0.12011800  0.26222400  0.87237300  1
  N  1633  1  0.86863400  0.23951000  0.86854600  1
  N  1635  1  0.90953500  0.21722400  0.81364900  1
  N  1657  1  0.58021100  0.21028400  0.53630000  1
  N  1659  1  0.62005200  0.23705900  0.48342300  1
  N  1661  1  0.36862200  0.25979900  0.48728100  1
  N  1663  1  0.40954700  0.28205800  0.54218700  1
  O  17  1  0.25367400  0.11208900  0.98417400  1
  O  18  1  0.20840700  0.05774700  0.99082200  1
  O  45  1  0.75366400  0.38721300  0.01512300  1
  O  46  1  0.70848200  0.44156100  0.00847300  1
  O  73  1  0.50356700  0.26515200  0.86235200  1
  O  74  1  0.45834300  0.25849600  0.80801400  1
  O  101  1  0.00356200  0.23416500  0.13694900  1
  O  102  1  0.95840000  0.24081100  0.19128800  1
  O  129  1  0.74579700  0.88664200  0.01523700  1
  O  130  1  0.78847700  0.94176000  0.00766400  1
  O  157  1  0.24581200  0.61265700  0.98407500  1
  O  158  1  0.28844600  0.55753600  0.99163800  1
  O  185  1  0.49546400  0.73432700  0.13722800  1
  O  186  1  0.54106500  0.74095400  0.19161000  1
  O  213  1  0.99546500  0.76496200  0.86207100  1
  O  214  1  0.04099900  0.75833400  0.80768300  1
  O  241  1  0.75375100  0.61209600  0.48432700  1
  O  242  1  0.70817400  0.55771200  0.49095700  1
  O  269  1  0.25374100  0.88720600  0.51496400  1
  O  270  1  0.20823300  0.94159000  0.50834100  1
  O  297  1  0.00343600  0.76523400  0.36268400  1
  O  298  1  0.96079100  0.75766600  0.30756200  1
  O  325  1  0.50342500  0.73408700  0.63661400  1
  O  326  1  0.46082100  0.74164300  0.69174000  1
  O  353  1  0.24568100  0.38662400  0.51505800  1
  O  354  1  0.28862400  0.44179000  0.50753500  1
  O  381  1  0.74570000  0.11267400  0.48425200  1
  O  382  1  0.78858400  0.05750300  0.49177000  1
  O  409  1  0.99561800  0.23424500  0.63688900  1
  O  410  1  0.03858100  0.24178500  0.69205700  1
  O  437  1  0.49562700  0.26503300  0.36241300  1
  O  438  1  0.53854900  0.25750700  0.30724200  1
  O  471  1  0.88142000  0.94321900  0.01660400  1
  O  472  1  0.10314400  0.06185600  0.98616700  1
  O  495  1  0.38142200  0.55608600  0.98271900  1
  O  496  1  0.60318600  0.43744600  0.01311600  1
  O  519  1  0.13152100  0.23279800  0.69341700  1
  O  520  1  0.35307500  0.26311800  0.81211200  1
  O  543  1  0.63151900  0.26647700  0.30588500  1
  O  544  1  0.85310000  0.23619900  0.18718500  1
  O  567  1  0.12709200  0.55292700  0.01834100  1
  O  568  1  0.88918300  0.44076800  0.98250800  1
  O  591  1  0.62716200  0.94639700  0.98094300  1
  O  592  1  0.38910900  0.05850800  0.01679200  1
  O  615  1  0.87730100  0.26842500  0.69676300  1
  O  616  1  0.63906500  0.23252900  0.80880100  1
  O  639  1  0.37724700  0.23088000  0.30255300  1
  O  640  1  0.13912300  0.26678400  0.19048200  1
  O  663  1  0.86784100  0.76661500  0.30612600  1
  O  664  1  0.64628100  0.73627100  0.18743400  1
  O  687  1  0.36784000  0.73270900  0.69317100  1
  O  688  1  0.14624900  0.76301000  0.81186700  1
  O  711  1  0.12213900  0.73093700  0.30295200  1
  O  712  1  0.36030800  0.76683600  0.19089400  1
  O  735  1  0.62218800  0.76835900  0.69633300  1
  O  736  1  0.86024800  0.73245100  0.80842400  1
  O  759  1  0.38156400  0.44316200  0.51650800  1
  O  760  1  0.60289900  0.56192900  0.48628000  1
  O  783  1  0.88155800  0.05613800  0.48281400  1
  O  784  1  0.10293600  0.93736800  0.51300200  1
  O  807  1  0.62730400  0.05282200  0.51841200  1
  O  808  1  0.38909200  0.94079000  0.48245500  1
  O  831  1  0.12738000  0.44650400  0.48087400  1
  O  832  1  0.88901700  0.55848700  0.51684300  1
  O  855  1  0.27258800  0.11077100  0.94770600  1
  O  856  1  0.43667600  0.22601100  0.88081100  1
  O  879  1  0.77257600  0.38853900  0.05159100  1
  O  880  1  0.93662200  0.27329800  0.11850400  1
  O  903  1  0.52245800  0.30163000  0.86100000  1
  O  904  1  0.68670800  0.36875200  0.97607100  1
  O  927  1  0.02246300  0.19768600  0.13831000  1
  O  928  1  0.18667100  0.13055100  0.02322500  1
  O  951  1  0.72220600  0.88869900  0.05108200  1
  O  952  1  0.56329600  0.77298100  0.11876600  1
  O  975  1  0.22224900  0.61060500  0.94822600  1
  O  976  1  0.06332300  0.72631900  0.88053200  1
  O  999  1  0.47669000  0.69795500  0.13829200  1
  O  1000  1  0.31384200  0.63209000  0.02216300  1
  O  1023  1  0.97668500  0.80133200  0.86099900  1
  O  1024  1  0.81388500  0.86719700  0.97715100  1
  O  1047  1  0.77253100  0.61103500  0.44795800  1
  O  1048  1  0.93534500  0.72718700  0.38212300  1
  O  1071  1  0.27251700  0.88827100  0.55133300  1
  O  1072  1  0.43531600  0.77212300  0.61718900  1
  O  1095  1  0.02704100  0.80107800  0.36062700  1
  O  1096  1  0.18592300  0.86875200  0.47634700  1
  O  1119  1  0.52701600  0.69824000  0.63866900  1
  O  1120  1  0.68590800  0.63056600  0.52294000  1
  O  1143  1  0.22216300  0.38843700  0.55082200  1
  O  1144  1  0.06463700  0.27178900  0.61745500  1
  O  1167  1  0.72220600  0.11086300  0.44848300  1
  O  1168  1  0.56466300  0.22750000  0.38183300  1
  O  1191  1  0.97209200  0.19848800  0.63866200  1
  O  1192  1  0.81472300  0.13207500  0.52186200  1
  O  1215  1  0.47211100  0.30079400  0.36064200  1
  O  1216  1  0.31476400  0.36721700  0.47744800  1
  O  1233  1  0.25367400  0.11208900  0.16243500  1
  O  1234  1  0.20840700  0.05774700  0.16908300  1
  O  1261  1  0.75366400  0.38721300  0.19338400  1
  O  1262  1  0.70848200  0.44156100  0.18673400  1
  O  1289  1  0.50356700  0.26515200  0.04061280  1
  O  1290  1  0.45834300  0.25849600  0.98627500  1
  O  1317  1  0.00356200  0.23416500  0.31521000  1
  O  1318  1  0.95840000  0.24081100  0.36954900  1
  O  1345  1  0.74579700  0.88664200  0.19349800  1
  O  1346  1  0.78847700  0.94176000  0.18592500  1
  O  1373  1  0.24581200  0.61265700  0.16233600  1
  O  1374  1  0.28844600  0.55753600  0.16989900  1
  O  1401  1  0.49546400  0.73432700  0.31548900  1
  O  1402  1  0.54106500  0.74095400  0.36987100  1
  O  1429  1  0.99546500  0.76496200  0.04033180  1
  O  1430  1  0.04099900  0.75833400  0.98594400  1
  O  1457  1  0.75375100  0.61209600  0.66258800  1
  O  1458  1  0.70817400  0.55771200  0.66921800  1
  O  1485  1  0.25374100  0.88720600  0.69322500  1
  O  1486  1  0.20823300  0.94159000  0.68660200  1
  O  1513  1  0.00343600  0.76523400  0.54094500  1
  O  1514  1  0.96079100  0.75766600  0.48582300  1
  O  1541  1  0.50342500  0.73408700  0.81487500  1
  O  1542  1  0.46082100  0.74164300  0.87000100  1
  O  1569  1  0.24568100  0.38662400  0.69331900  1
  O  1570  1  0.28862400  0.44179000  0.68579600  1
  O  1597  1  0.74570000  0.11267400  0.66251300  1
  O  1598  1  0.78858400  0.05750300  0.67003100  1
  O  1625  1  0.99561800  0.23424500  0.81515000  1
  O  1626  1  0.03858100  0.24178500  0.87031800  1
  O  1653  1  0.49562700  0.26503300  0.54067400  1
  O  1654  1  0.53854900  0.25750700  0.48550300  1
  O  1687  1  0.88142000  0.94321900  0.19486500  1
  O  1688  1  0.10314400  0.06185600  0.16442800  1
  O  1711  1  0.38142200  0.55608600  0.16098000  1
  O  1712  1  0.60318600  0.43744600  0.19137700  1
  O  1735  1  0.13152100  0.23279800  0.87167800  1
  O  1736  1  0.35307500  0.26311800  0.99037300  1
  O  1759  1  0.63151900  0.26647700  0.48414600  1
  O  1760  1  0.85310000  0.23619900  0.36544600  1
  O  1783  1  0.12709200  0.55292700  0.19660200  1
  O  1784  1  0.88918300  0.44076800  0.16076900  1
  O  1807  1  0.62716200  0.94639700  0.15920400  1
  O  1808  1  0.38910900  0.05850800  0.19505300  1
  O  1831  1  0.87730100  0.26842500  0.87502400  1
  O  1832  1  0.63906500  0.23252900  0.98706200  1
  O  1855  1  0.37724700  0.23088000  0.48081400  1
  O  1856  1  0.13912300  0.26678400  0.36874300  1
  O  1879  1  0.86784100  0.76661500  0.48438700  1
  O  1880  1  0.64628100  0.73627100  0.36569500  1
  O  1903  1  0.36784000  0.73270900  0.87143200  1
  O  1904  1  0.14624900  0.76301000  0.99012800  1
  O  1927  1  0.12213900  0.73093700  0.48121300  1
  O  1928  1  0.36030800  0.76683600  0.36915500  1
  O  1951  1  0.62218800  0.76835900  0.87459400  1
  O  1952  1  0.86024800  0.73245100  0.98668500  1
  O  1975  1  0.38156400  0.44316200  0.69476900  1
  O  1976  1  0.60289900  0.56192900  0.66454100  1
  O  1999  1  0.88155800  0.05613800  0.66107500  1
  O  2000  1  0.10293600  0.93736800  0.69126300  1
  O  2023  1  0.62730400  0.05282200  0.69667300  1
  O  2024  1  0.38909200  0.94079000  0.66071600  1
  O  2047  1  0.12738000  0.44650400  0.65913500  1
  O  2048  1  0.88901700  0.55848700  0.69510400  1
  O  2071  1  0.27258800  0.11077100  0.12596700  1
  O  2072  1  0.43667600  0.22601100  0.05907180  1
  O  2095  1  0.77257600  0.38853900  0.22985200  1
  O  2096  1  0.93662200  0.27329800  0.29676500  1
  O  2119  1  0.52245800  0.30163000  0.03926080  1
  O  2120  1  0.68670800  0.36875200  0.15433200  1
  O  2143  1  0.02246300  0.19768600  0.31657100  1
  O  2144  1  0.18667100  0.13055100  0.20148600  1
  O  2167  1  0.72220600  0.88869900  0.22934300  1
  O  2168  1  0.56329600  0.77298100  0.29702700  1
  O  2191  1  0.22224900  0.61060500  0.12648700  1
  O  2192  1  0.06332300  0.72631900  0.05879280  1
  O  2215  1  0.47669000  0.69795500  0.31655300  1
  O  2216  1  0.31384200  0.63209000  0.20042400  1
  O  2239  1  0.97668500  0.80133200  0.03925980  1
  O  2240  1  0.81388500  0.86719700  0.15541200  1
  O  2263  1  0.77253100  0.61103500  0.62621900  1
  O  2264  1  0.93534500  0.72718700  0.56038400  1
  O  2287  1  0.27251700  0.88827100  0.72959400  1
  O  2288  1  0.43531600  0.77212300  0.79545000  1
  O  2311  1  0.02704100  0.80107800  0.53888800  1
  O  2312  1  0.18592300  0.86875200  0.65460800  1
  O  2335  1  0.52701600  0.69824000  0.81693000  1
  O  2336  1  0.68590800  0.63056600  0.70120100  1
  O  2359  1  0.22216300  0.38843700  0.72908300  1
  O  2360  1  0.06463700  0.27178900  0.79571600  1
  O  2383  1  0.72220600  0.11086300  0.62674400  1
  O  2384  1  0.56466300  0.22750000  0.56009400  1
  O  2407  1  0.97209200  0.19848800  0.81692300  1
  O  2408  1  0.81472300  0.13207500  0.70012300  1
  O  2431  1  0.47211100  0.30079400  0.53890300  1
  O  2432  1  0.31476400  0.36721700  0.65570900  1
