# generated using pymatgen
data_H35C59N3
_symmetry_space_group_name_H-M   'P 1'
_cell_length_a   27.89080000
_cell_length_b   40.10960000
_cell_length_c   50.97380000
_cell_angle_alpha   89.60900000
_cell_angle_beta   86.51370000
_cell_angle_gamma   89.28540000
_symmetry_Int_Tables_number   1
_chemical_formula_structural   H35C59N3
_chemical_formula_sum   'H280 C472 N24'
_cell_volume   56912.81265030
_cell_formula_units_Z   8
loop_
 _symmetry_equiv_pos_site_id
 _symmetry_equiv_pos_as_xyz
  1  'x, y, z'
loop_
 _atom_site_type_symbol
 _atom_site_label
 _atom_site_symmetry_multiplicity
 _atom_site_fract_x
 _atom_site_fract_y
 _atom_site_fract_z
 _atom_site_occupancy
  H  26  1  0.08274700  0.92635000  0.84604800  1
  H  27  1  0.01316300  0.89496100  0.85667700  1
  H  28  1  0.16288300  0.83723000  0.83334300  1
  H  29  1  0.09283100  0.80578100  0.84432300  1
  H  30  1  0.04517700  0.78230000  0.88718200  1
  H  31  1  0.05368200  0.78128700  0.93328400  1
  H  32  1  0.97067300  0.86968800  0.94115800  1
  H  33  1  0.96244300  0.87078200  0.89512000  1
  H  34  1  0.90243900  0.82810300  0.87553400  1
  H  35  1  0.83456000  0.85592500  0.85937900  1
  H  36  1  0.92041100  0.88967900  0.79360600  1
  H  37  1  0.98776800  0.86212400  0.80986300  1
  H  38  1  0.03176400  0.80599200  0.80645100  1
  H  39  1  0.94985000  0.77046700  0.87282200  1
  H  40  1  0.93886600  0.71937200  0.85122800  1
  H  41  1  0.02079900  0.75487800  0.78470200  1
  H  44  1  0.05292600  0.82391400  0.97360100  1
  H  45  1  0.16344800  0.92843200  0.82590100  1
  H  47  1  0.83852100  0.90835700  0.79935400  1
  H  49  1  0.94284600  0.68821700  0.81019500  1
  H  75  1  0.91692400  0.92886500  0.10939800  1
  H  76  1  0.98749300  0.89728300  0.09927600  1
  H  77  1  0.83872900  0.83997500  0.12137000  1
  H  78  1  0.90979000  0.80835100  0.11094600  1
  H  79  1  0.95918300  0.78381300  0.06953600  1
  H  80  1  0.95077900  0.78219200  0.02348400  1
  H  81  1  0.02945700  0.87106400  0.01415300  1
  H  82  1  0.03747800  0.87281000  0.06022000  1
  H  83  1  0.09981500  0.83120800  0.08002400  1
  H  84  1  0.16650100  0.85933300  0.09593100  1
  H  85  1  0.07994000  0.89093300  0.16221200  1
  H  86  1  0.01374300  0.86316400  0.14617500  1
  H  87  1  0.96916100  0.80769100  0.14942200  1
  H  88  1  0.05556400  0.77294100  0.08432700  1
  H  89  1  0.06647800  0.72133400  0.10604400  1
  H  90  1  0.97994700  0.75602800  0.17127200  1
  H  93  1  0.94941400  0.82537900  0.98254200  1
  H  94  1  0.83551900  0.93125900  0.12840700  1
  H  96  1  0.16029400  0.91122600  0.15573500  1
  H  98  1  0.06067100  0.68942600  0.14711900  1
  H  124  1  0.58392300  0.42567900  0.34781700  1
  H  125  1  0.51418000  0.39441600  0.35834800  1
  H  126  1  0.66279000  0.33650200  0.33292800  1
  H  127  1  0.59261500  0.30518500  0.34383400  1
  H  128  1  0.54602800  0.28240800  0.38753500  1
  H  129  1  0.55457800  0.28127800  0.43363200  1
  H  130  1  0.46928000  0.36859500  0.44184000  1
  H  131  1  0.46102800  0.36980400  0.39581900  1
  H  132  1  0.40213800  0.32706200  0.37523000  1
  H  133  1  0.33440000  0.35498600  0.35891000  1
  H  134  1  0.42166700  0.39086600  0.29444700  1
  H  135  1  0.48877600  0.36324100  0.31083800  1
  H  136  1  0.53008400  0.30646700  0.30651300  1
  H  137  1  0.45104000  0.26960400  0.37336800  1
  H  138  1  0.43959800  0.21884800  0.35144000  1
  H  139  1  0.51842900  0.25574300  0.28436200  1
  H  142  1  0.55294600  0.32340200  0.47406900  1
  H  143  1  0.66445100  0.42813200  0.32787400  1
  H  145  1  0.33978000  0.40946900  0.30002700  1
  H  147  1  0.44684200  0.18625000  0.31190400  1
  H  173  1  0.41600000  0.42815000  0.60990500  1
  H  174  1  0.48670500  0.39679300  0.59943600  1
  H  175  1  0.33880800  0.33895300  0.62266700  1
  H  176  1  0.40991300  0.30759400  0.61189800  1
  H  177  1  0.45902000  0.28344200  0.57026200  1
  H  178  1  0.45068400  0.28175900  0.52420200  1
  H  179  1  0.53032800  0.37019600  0.51476100  1
  H  180  1  0.53826900  0.37201600  0.56083600  1
  H  181  1  0.59995900  0.33028900  0.58134300  1
  H  182  1  0.66666667  0.35797800  0.59769600  1
  H  183  1  0.57878200  0.39093800  0.66306500  1
  H  184  1  0.51266600  0.36359800  0.64661200  1
  H  185  1  0.46962800  0.30811200  0.65036500  1
  H  186  1  0.55485500  0.27213700  0.58524100  1
  H  187  1  0.56588300  0.22086800  0.60745900  1
  H  188  1  0.48058800  0.25686500  0.67270600  1
  H  191  1  0.44953200  0.32472300  0.48327700  1
  H  192  1  0.33495300  0.43020400  0.62962600  1
  H  194  1  0.65977800  0.41001500  0.65745100  1
  H  196  1  0.56047400  0.18963800  0.64894300  1
  H  215  1  0.78190900  0.95547200  0.80674000  1
  H  216  1  0.70936300  0.98250700  0.79476100  1
  H  217  1  0.70396200  0.86963900  0.83014100  1
  H  218  1  0.42968800  0.11661600  0.72590500  1
  H  219  1  0.58002200  0.10523600  0.71130800  1
  H  220  1  0.58099500  0.15436600  0.68449400  1
  H  221  1  0.43102400  0.16574400  0.69879500  1
  H  222  1  0.30082000  0.96629400  0.77923100  1
  H  223  1  0.29421400  0.88307300  0.84913000  1
  H  224  1  0.36897000  0.90983600  0.83713300  1
  H  225  1  0.22665000  0.93925200  0.79122800  1
  H  232  1  0.57965300  0.02389100  0.76466000  1
  H  233  1  0.42809200  0.02286200  0.76604300  1
  H  234  1  0.50307600  0.94706100  0.80501600  1
  H  235  1  0.63091300  0.89655200  0.81837200  1
  H  263  1  0.21558100  0.95795000  0.14873600  1
  H  264  1  0.28685400  0.98504300  0.16086600  1
  H  265  1  0.29715000  0.87241500  0.12617400  1
  H  266  1  0.56774600  0.11522500  0.22967600  1
  H  267  1  0.41801500  0.10706100  0.24706600  1
  H  268  1  0.41962200  0.15514900  0.27446800  1
  H  269  1  0.56899700  0.16328300  0.25734700  1
  H  270  1  0.69699500  0.96947900  0.17500000  1
  H  271  1  0.70585000  0.88508100  0.10681400  1
  H  272  1  0.63006000  0.91151900  0.11885400  1
  H  273  1  0.77221900  0.94277100  0.16296000  1
  H  280  1  0.41634900  0.02579100  0.19194000  1
  H  281  1  0.56799100  0.02409100  0.18975500  1
  H  282  1  0.49435700  0.94976700  0.15061100  1
  H  283  1  0.36892500  0.89940000  0.13808900  1
  H  311  1  0.28120300  0.45500100  0.30695900  1
  H  312  1  0.20885500  0.48150400  0.29415100  1
  H  313  1  0.20462200  0.36744500  0.32702700  1
  H  314  1  0.92995300  0.61455200  0.22307600  1
  H  315  1  0.08017400  0.60334100  0.20797500  1
  H  316  1  0.08094300  0.65298000  0.18177900  1
  H  317  1  0.93107000  0.66419800  0.19656900  1
  H  318  1  0.79924800  0.46716900  0.27920200  1
  H  319  1  0.79616000  0.37941900  0.34554100  1
  H  320  1  0.87082800  0.40579900  0.33270800  1
  H  321  1  0.72513100  0.44051200  0.29203000  1
  H  328  1  0.08005800  0.52142800  0.26126700  1
  H  329  1  0.92849700  0.52058000  0.26266800  1
  H  330  1  0.00326600  0.44497000  0.30196000  1
  H  331  1  0.13173900  0.39384100  0.31443500  1
  H  359  1  0.71565300  0.45638500  0.65094000  1
  H  360  1  0.78700200  0.48298500  0.66350500  1
  H  361  1  0.79655100  0.37052200  0.62843400  1
  H  362  1  0.06743900  0.61377600  0.73113800  1
  H  363  1  0.91752400  0.60601700  0.74811500  1
  H  364  1  0.91878100  0.65493500  0.77458900  1
  H  365  1  0.06833800  0.66268000  0.75790500  1
  H  366  1  0.19697400  0.46710700  0.67759700  1
  H  367  1  0.20546800  0.38351000  0.60878600  1
  H  368  1  0.12961200  0.40952400  0.62136000  1
  H  369  1  0.27229200  0.44082600  0.66500200  1
  H  376  1  0.91615800  0.52357000  0.69440000  1
  H  377  1  0.06780500  0.52192400  0.69221600  1
  H  378  1  0.99418400  0.44699700  0.65373200  1
  H  379  1  0.86842700  0.39702500  0.64077600  1
  H  414  1  0.08274700  0.57730600  0.84604800  1
  H  415  1  0.01316300  0.54591700  0.85667700  1
  H  416  1  0.16288300  0.48818600  0.83334300  1
  H  417  1  0.09283100  0.45673700  0.84432300  1
  H  418  1  0.04517700  0.43325600  0.88718200  1
  H  419  1  0.05368200  0.43224300  0.93328400  1
  H  420  1  0.97067300  0.52064400  0.94115800  1
  H  421  1  0.96244300  0.52173800  0.89512000  1
  H  422  1  0.90243900  0.47905900  0.87553400  1
  H  423  1  0.83456000  0.50688100  0.85937900  1
  H  424  1  0.92041100  0.54063500  0.79360600  1
  H  425  1  0.98776800  0.51308000  0.80986300  1
  H  426  1  0.03176400  0.45694800  0.80645100  1
  H  427  1  0.94985000  0.42142300  0.87282200  1
  H  428  1  0.93886600  0.37032800  0.85122800  1
  H  429  1  0.02079900  0.40583400  0.78470200  1
  H  432  1  0.05292600  0.47487000  0.97360100  1
  H  433  1  0.16344800  0.57938800  0.82590100  1
  H  435  1  0.83852100  0.55931300  0.79935400  1
  H  437  1  0.94284600  0.33917300  0.81019500  1
  H  463  1  0.91692400  0.57982100  0.10939800  1
  H  464  1  0.98749300  0.54823900  0.09927600  1
  H  465  1  0.83872900  0.49093100  0.12137000  1
  H  466  1  0.90979000  0.45930700  0.11094600  1
  H  467  1  0.95918300  0.43476900  0.06953600  1
  H  468  1  0.95077900  0.43314800  0.02348400  1
  H  469  1  0.02945700  0.52202000  0.01415300  1
  H  470  1  0.03747800  0.52376600  0.06022000  1
  H  471  1  0.09981500  0.48216400  0.08002400  1
  H  472  1  0.16650100  0.51028900  0.09593100  1
  H  473  1  0.07994000  0.54188900  0.16221200  1
  H  474  1  0.01374300  0.51412000  0.14617500  1
  H  475  1  0.96916100  0.45864700  0.14942200  1
  H  476  1  0.05556400  0.42389700  0.08432700  1
  H  477  1  0.06647800  0.37229000  0.10604400  1
  H  478  1  0.97994700  0.40698400  0.17127200  1
  H  481  1  0.94941400  0.47633500  0.98254200  1
  H  482  1  0.83551900  0.58221500  0.12840700  1
  H  484  1  0.16029400  0.56218200  0.15573500  1
  H  486  1  0.06067100  0.34038200  0.14711900  1
  H  512  1  0.58392300  0.07663500  0.34781700  1
  H  513  1  0.51418000  0.04537200  0.35834800  1
  H  514  1  0.66279000  0.98745840  0.33292800  1
  H  515  1  0.59261500  0.95614140  0.34383400  1
  H  516  1  0.54602800  0.93336440  0.38753500  1
  H  517  1  0.55457800  0.93223440  0.43363200  1
  H  518  1  0.46928000  0.01955100  0.44184000  1
  H  519  1  0.46102800  0.02076000  0.39581900  1
  H  520  1  0.40213800  0.97801840  0.37523000  1
  H  521  1  0.33440000  0.00594200  0.35891000  1
  H  522  1  0.42166700  0.04182200  0.29444700  1
  H  523  1  0.48877600  0.01419700  0.31083800  1
  H  524  1  0.53008400  0.95742340  0.30651300  1
  H  525  1  0.45104000  0.92056040  0.37336800  1
  H  526  1  0.43959800  0.86980400  0.35144000  1
  H  527  1  0.51842900  0.90669940  0.28436200  1
  H  530  1  0.55294600  0.97435840  0.47406900  1
  H  531  1  0.66445100  0.07908800  0.32787400  1
  H  533  1  0.33978000  0.06042500  0.30002700  1
  H  535  1  0.44684200  0.83720600  0.31190400  1
  H  561  1  0.41600000  0.07910600  0.60990500  1
  H  562  1  0.48670500  0.04774900  0.59943600  1
  H  563  1  0.33880800  0.98990940  0.62266700  1
  H  564  1  0.40991300  0.95855040  0.61189800  1
  H  565  1  0.45902000  0.93439840  0.57026200  1
  H  566  1  0.45068400  0.93271540  0.52420200  1
  H  567  1  0.53032800  0.02115200  0.51476100  1
  H  568  1  0.53826900  0.02297200  0.56083600  1
  H  569  1  0.59995900  0.98124540  0.58134300  1
  H  570  1  0.66666667  0.00893400  0.59769600  1
  H  571  1  0.57878200  0.04189400  0.66306500  1
  H  572  1  0.51266600  0.01455400  0.64661200  1
  H  573  1  0.46962800  0.95906840  0.65036500  1
  H  574  1  0.55485500  0.92309340  0.58524100  1
  H  575  1  0.56588300  0.87182400  0.60745900  1
  H  576  1  0.48058800  0.90782140  0.67270600  1
  H  579  1  0.44953200  0.97567940  0.48327700  1
  H  580  1  0.33495300  0.08116000  0.62962600  1
  H  582  1  0.65977800  0.06097100  0.65745100  1
  H  584  1  0.56047400  0.84059400  0.64894300  1
  H  603  1  0.78190900  0.60642800  0.80674000  1
  H  604  1  0.70936300  0.63346300  0.79476100  1
  H  605  1  0.70396200  0.52059500  0.83014100  1
  H  606  1  0.42968800  0.76757200  0.72590500  1
  H  607  1  0.58002200  0.75619200  0.71130800  1
  H  608  1  0.58099500  0.80532200  0.68449400  1
  H  609  1  0.43102400  0.81670000  0.69879500  1
  H  610  1  0.30082000  0.61725000  0.77923100  1
  H  611  1  0.29421400  0.53402900  0.84913000  1
  H  612  1  0.36897000  0.56079200  0.83713300  1
  H  613  1  0.22665000  0.59020800  0.79122800  1
  H  620  1  0.57965300  0.67484700  0.76466000  1
  H  621  1  0.42809200  0.67381800  0.76604300  1
  H  622  1  0.50307600  0.59801700  0.80501600  1
  H  623  1  0.63091300  0.54750800  0.81837200  1
  H  651  1  0.21558100  0.60890600  0.14873600  1
  H  652  1  0.28685400  0.63599900  0.16086600  1
  H  653  1  0.29715000  0.52337100  0.12617400  1
  H  654  1  0.56774600  0.76618100  0.22967600  1
  H  655  1  0.41801500  0.75801700  0.24706600  1
  H  656  1  0.41962200  0.80610500  0.27446800  1
  H  657  1  0.56899700  0.81423900  0.25734700  1
  H  658  1  0.69699500  0.62043500  0.17500000  1
  H  659  1  0.70585000  0.53603700  0.10681400  1
  H  660  1  0.63006000  0.56247500  0.11885400  1
  H  661  1  0.77221900  0.59372700  0.16296000  1
  H  668  1  0.41634900  0.67674700  0.19194000  1
  H  669  1  0.56799100  0.67504700  0.18975500  1
  H  670  1  0.49435700  0.60072300  0.15061100  1
  H  671  1  0.36892500  0.55035600  0.13808900  1
  H  699  1  0.28120300  0.10595700  0.30695900  1
  H  700  1  0.20885500  0.13246000  0.29415100  1
  H  701  1  0.20462200  0.01840100  0.32702700  1
  H  702  1  0.92995300  0.26550800  0.22307600  1
  H  703  1  0.08017400  0.25429700  0.20797500  1
  H  704  1  0.08094300  0.30393600  0.18177900  1
  H  705  1  0.93107000  0.31515400  0.19656900  1
  H  706  1  0.79924800  0.11812500  0.27920200  1
  H  707  1  0.79616000  0.03037500  0.34554100  1
  H  708  1  0.87082800  0.05675500  0.33270800  1
  H  709  1  0.72513100  0.09146800  0.29203000  1
  H  716  1  0.08005800  0.17238400  0.26126700  1
  H  717  1  0.92849700  0.17153600  0.26266800  1
  H  718  1  0.00326600  0.09592600  0.30196000  1
  H  719  1  0.13173900  0.04479700  0.31443500  1
  H  747  1  0.71565300  0.10734100  0.65094000  1
  H  748  1  0.78700200  0.13394100  0.66350500  1
  H  749  1  0.79655100  0.02147800  0.62843400  1
  H  750  1  0.06743900  0.26473200  0.73113800  1
  H  751  1  0.91752400  0.25697300  0.74811500  1
  H  752  1  0.91878100  0.30589100  0.77458900  1
  H  753  1  0.06833800  0.31363600  0.75790500  1
  H  754  1  0.19697400  0.11806300  0.67759700  1
  H  755  1  0.20546800  0.03446600  0.60878600  1
  H  756  1  0.12961200  0.06048000  0.62136000  1
  H  757  1  0.27229200  0.09178200  0.66500200  1
  H  764  1  0.91615800  0.17452600  0.69440000  1
  H  765  1  0.06780500  0.17288000  0.69221600  1
  H  766  1  0.99418400  0.09795300  0.65373200  1
  H  767  1  0.86842700  0.04798100  0.64077600  1
  C  1  1  0.98003100  0.73134500  0.81602700  1
  C  2  1  0.95985300  0.73703500  0.84174600  1
  C  3  1  0.96684500  0.76730800  0.85466000  1
  C  4  1  0.99541900  0.79316000  0.84298400  1
  C  5  1  0.01377100  0.78758000  0.81672700  1
  C  6  1  0.00700500  0.75731400  0.80367400  1
  C  7  1  0.99818800  0.82718400  0.85615200  1
  C  8  1  0.95375700  0.84433700  0.84573300  1
  C  9  1  0.95606100  0.86092300  0.82096500  1
  C  10  1  0.91593000  0.87715100  0.81115100  1
  C  11  1  0.87062300  0.87652700  0.82515200  1
  C  12  1  0.86680900  0.85778900  0.84880600  1
  C  13  1  0.90725800  0.84157000  0.85851000  1
  C  14  1  0.99942200  0.82511700  0.88609500  1
  C  15  1  0.04414600  0.84679200  0.84960000  1
  C  16  1  0.04414400  0.88214000  0.85146200  1
  C  17  1  0.08553900  0.90087400  0.84529500  1
  C  18  1  0.12985000  0.88507500  0.83798000  1
  C  19  1  0.13142700  0.84979600  0.83810600  1
  C  20  1  0.08966300  0.83118500  0.84424600  1
  C  21  1  0.02750200  0.80026700  0.89827500  1
  C  22  1  0.03298200  0.79972800  0.92554500  1
  C  23  1  0.01122900  0.82458200  0.94189500  1
  C  24  1  0.98501600  0.85038000  0.93009000  1
  C  25  1  0.97993700  0.85079100  0.90279000  1
  C  42  1  0.16927900  0.90456500  0.83038800  1
  C  43  1  0.97060400  0.70171400  0.80331800  1
  C  46  1  0.83228200  0.89431400  0.81536400  1
  C  48  1  0.01900300  0.82489800  0.96855000  1
  C  50  1  0.02295000  0.73285100  0.14055900  1
  C  51  1  0.04466100  0.73897800  0.11523100  1
  C  52  1  0.03776700  0.76956500  0.10225600  1
  C  53  1  0.00776700  0.79531200  0.11343200  1
  C  54  1  0.98819800  0.78937900  0.13942500  1
  C  55  1  0.99482400  0.75878500  0.15253800  1
  C  56  1  0.00412800  0.82932300  0.09987600  1
  C  57  1  0.04808400  0.84639000  0.11010500  1
  C  58  1  0.04537600  0.86240100  0.13495200  1
  C  59  1  0.08481300  0.87879200  0.14461400  1
  C  60  1  0.12994000  0.87889400  0.13039600  1
  C  61  1  0.13433000  0.86065700  0.10667400  1
  C  62  1  0.09454800  0.84429200  0.09710600  1
  C  63  1  0.00289100  0.82694800  0.06997000  1
  C  64  1  0.95762100  0.84915300  0.10616100  1
  C  65  1  0.95675500  0.88453400  0.10430300  1
  C  66  1  0.91474000  0.90339200  0.11013500  1
  C  67  1  0.87063200  0.88773800  0.11709300  1
  C  68  1  0.86997800  0.85246500  0.11691800  1
  C  69  1  0.91234000  0.83373600  0.11108600  1
  C  70  1  0.97600500  0.80178300  0.05817600  1
  C  71  1  0.97056700  0.80086900  0.03092400  1
  C  72  1  0.99115900  0.82565700  0.01418100  1
  C  73  1  0.01602600  0.85181200  0.02555200  1
  C  74  1  0.02099700  0.85260700  0.05285800  1
  C  91  1  0.83049900  0.90733100  0.12437100  1
  C  92  1  0.03191400  0.70277600  0.15328200  1
  C  95  1  0.16744600  0.89693100  0.14004400  1
  C  97  1  0.98336500  0.82558700  0.98754600  1
  C  99  1  0.47948700  0.23140500  0.31594700  1
  C  100  1  0.46026600  0.23666100  0.34193000  1
  C  101  1  0.46752600  0.26676200  0.35504900  1
  C  102  1  0.49538700  0.29293700  0.34331700  1
  C  103  1  0.51267300  0.28781300  0.31681000  1
  C  104  1  0.50558400  0.25774800  0.30353800  1
  C  105  1  0.49825400  0.32688300  0.35662600  1
  C  106  1  0.45406500  0.34433100  0.34615500  1
  C  107  1  0.45684300  0.36163100  0.32168900  1
  C  108  1  0.41683400  0.37789300  0.31177200  1
  C  109  1  0.37114900  0.37663900  0.32532800  1
  C  110  1  0.36690600  0.35728000  0.34866000  1
  C  111  1  0.40725100  0.34100000  0.35846100  1
  C  112  1  0.49920600  0.32466100  0.38658400  1
  C  113  1  0.54446800  0.34629900  0.35022600  1
  C  114  1  0.54494700  0.38157000  0.35273700  1
  C  115  1  0.58644600  0.40022400  0.34661200  1
  C  116  1  0.63044300  0.38440500  0.33864900  1
  C  117  1  0.63157800  0.34912600  0.33813300  1
  C  118  1  0.58971200  0.33059300  0.34423700  1
  C  119  1  0.52789800  0.30010600  0.39869800  1
  C  120  1  0.53337100  0.29949000  0.42597300  1
  C  121  1  0.51103800  0.32401000  0.44243400  1
  C  122  1  0.48410400  0.34950300  0.43071000  1
  C  123  1  0.47898500  0.34996700  0.40340400  1
  C  140  1  0.66995600  0.40389400  0.33109500  1
  C  141  1  0.46930500  0.20223000  0.30274300  1
  C  144  1  0.33293200  0.39446100  0.31541500  1
  C  146  1  0.51898000  0.32434400  0.46909200  1
  C  148  1  0.52298400  0.23308600  0.64203900  1
  C  149  1  0.54428900  0.23871100  0.61654400  1
  C  150  1  0.53729500  0.26908000  0.60327100  1
  C  151  1  0.50760500  0.29506400  0.61433200  1
  C  152  1  0.48845800  0.28961600  0.64047700  1
  C  153  1  0.49517500  0.25926400  0.65387900  1
  C  154  1  0.50400000  0.32893500  0.60056100  1
  C  155  1  0.54770300  0.34617400  0.61090500  1
  C  156  1  0.54453700  0.36250300  0.63562700  1
  C  157  1  0.58393900  0.37863300  0.64555300  1
  C  158  1  0.62945300  0.37815200  0.63175100  1
  C  159  1  0.63419500  0.35972300  0.60812600  1
  C  160  1  0.59443800  0.34361300  0.59829300  1
  C  161  1  0.50308100  0.32639100  0.57065000  1
  C  162  1  0.45730100  0.34859800  0.60666600  1
  C  163  1  0.45611500  0.38395900  0.60462900  1
  C  164  1  0.41404900  0.40266700  0.61069300  1
  C  165  1  0.37023800  0.38684200  0.61803300  1
  C  166  1  0.36984000  0.35156500  0.61791900  1
  C  167  1  0.41223600  0.33299400  0.61186500  1
  C  168  1  0.47606000  0.30129000  0.55887300  1
  C  169  1  0.47066600  0.30035000  0.53161700  1
  C  170  1  0.49149300  0.32501300  0.51483400  1
  C  171  1  0.51669900  0.35102900  0.52618200  1
  C  172  1  0.52162600  0.35186700  0.55349700  1
  C  189  1  0.33011100  0.40624000  0.62563500  1
  C  190  1  0.53195200  0.20324700  0.65507100  1
  C  193  1  0.66700600  0.39580300  0.64171900  1
  C  195  1  0.48352600  0.32498500  0.48819900  1
  C  197  1  0.50470700  0.10625100  0.72098500  1
  C  198  1  0.66349100  0.94192100  0.80529700  1
  C  199  1  0.34162100  0.94076600  0.80725900  1
  C  200  1  0.66255900  0.90920700  0.81573700  1
  C  201  1  0.70538600  0.89339700  0.82268900  1
  C  202  1  0.74985000  0.90969700  0.81900300  1
  C  203  1  0.75039800  0.94270600  0.80898000  1
  C  204  1  0.70769500  0.95865800  0.80208900  1
  C  205  1  0.54828100  0.11764800  0.70874600  1
  C  206  1  0.54881800  0.14647000  0.69281400  1
  C  207  1  0.50587000  0.16441700  0.68864200  1
  C  208  1  0.46257600  0.15312000  0.70127900  1
  C  209  1  0.46181400  0.12424600  0.71718400  1
  C  210  1  0.29991600  0.94896400  0.79412600  1
  C  211  1  0.25622900  0.93320800  0.80126900  1
  C  212  1  0.25324600  0.90918000  0.82176100  1
  C  213  1  0.29531300  0.90063100  0.83444200  1
  C  214  1  0.33912200  0.91640300  0.82741800  1
  C  226  1  0.45951300  0.98296800  0.78673800  1
  C  227  1  0.45993000  0.01245200  0.77140100  1
  C  228  1  0.50390400  0.02759400  0.76329200  1
  C  229  1  0.54758600  0.01304300  0.77059800  1
  C  230  1  0.54741000  0.98354800  0.78592900  1
  C  231  1  0.50330300  0.96859400  0.79395100  1
  C  236  1  0.38207500  0.95535600  0.80052000  1
  C  237  1  0.41898400  0.96874800  0.79399800  1
  C  238  1  0.62397200  0.95659300  0.79867100  1
  C  239  1  0.58765100  0.96981600  0.79251700  1
  C  240  1  0.50410700  0.05471000  0.74892600  1
  C  241  1  0.50423900  0.07941200  0.73564900  1
  C  245  1  0.49277900  0.10656300  0.23588300  1
  C  246  1  0.33448200  0.94464200  0.15077500  1
  C  247  1  0.65664900  0.94319300  0.14784700  1
  C  248  1  0.33677400  0.91199000  0.14051400  1
  C  249  1  0.29467300  0.89613100  0.13347200  1
  C  250  1  0.24950200  0.91228800  0.13685500  1
  C  251  1  0.24758800  0.94524400  0.14669400  1
  C  252  1  0.28956700  0.96124300  0.15367900  1
  C  253  1  0.45014500  0.11860800  0.24909400  1
  C  254  1  0.45112500  0.14682900  0.26533900  1
  C  255  1  0.49468600  0.16353700  0.26888700  1
  C  256  1  0.53701800  0.15160400  0.25530600  1
  C  257  1  0.53625000  0.12334800  0.23906200  1
  C  258  1  0.69836100  0.95192600  0.16043900  1
  C  259  1  0.74267800  0.93636900  0.15325900  1
  C  260  1  0.74633200  0.91198500  0.13326000  1
  C  261  1  0.70429900  0.90292900  0.12111200  1
  C  262  1  0.65986300  0.91850800  0.12816400  1
  C  274  1  0.53729700  0.98494000  0.16892300  1
  C  275  1  0.53631000  0.01398800  0.18448500  1
  C  276  1  0.49206200  0.02912800  0.19294800  1
  C  277  1  0.44861400  0.01496500  0.18575000  1
  C  278  1  0.44927900  0.98589500  0.17018600  1
  C  279  1  0.49371800  0.97098500  0.16183400  1
  C  284  1  0.61556700  0.95753900  0.15469100  1
  C  285  1  0.57818800  0.97075700  0.16137500  1
  C  286  1  0.37338700  0.95935000  0.15749700  1
  C  287  1  0.40926600  0.97246000  0.16367200  1
  C  288  1  0.49157800  0.05586200  0.20753700  1
  C  289  1  0.49198100  0.08016800  0.22099800  1
  C  293  1  0.00492900  0.60419200  0.21784700  1
  C  294  1  0.16364800  0.44002800  0.30292500  1
  C  295  1  0.84181200  0.43914600  0.30495700  1
  C  296  1  0.16307200  0.40697100  0.31266800  1
  C  297  1  0.20581400  0.39146200  0.32010900  1
  C  298  1  0.24991300  0.40840900  0.31764600  1
  C  299  1  0.25005300  0.44175100  0.30832100  1
  C  300  1  0.20743600  0.45739500  0.30093500  1
  C  301  1  0.04839400  0.61580900  0.20562700  1
  C  302  1  0.04880900  0.64495100  0.19005500  1
  C  303  1  0.00584300  0.66305600  0.18621800  1
  C  304  1  0.96264800  0.65149700  0.19880100  1
  C  305  1  0.96201100  0.62230600  0.21435400  1
  C  306  1  0.79910500  0.44887700  0.29335400  1
  C  307  1  0.75545700  0.43334900  0.30099500  1
  C  308  1  0.75349900  0.40800300  0.32048800  1
  C  309  1  0.79650600  0.39795500  0.33162700  1
  C  310  1  0.84027800  0.41349900  0.32410900  1
  C  322  1  0.95979300  0.48074800  0.28348200  1
  C  323  1  0.96031500  0.51012800  0.26801700  1
  C  324  1  0.00432300  0.52517800  0.25982800  1
  C  325  1  0.04796900  0.51061400  0.26720500  1
  C  326  1  0.04773500  0.48121700  0.28266600  1
  C  327  1  0.00356500  0.46638400  0.29075200  1
  C  332  1  0.88225700  0.45352500  0.29776400  1
  C  333  1  0.91918800  0.46671500  0.29094500  1
  C  334  1  0.12419000  0.45447500  0.29589200  1
  C  335  1  0.08794900  0.46756600  0.28945100  1
  C  336  1  0.00455800  0.55232900  0.24546400  1
  C  337  1  0.00460500  0.57713300  0.23229500  1
  C  341  1  0.99242500  0.60522400  0.73727600  1
  C  342  1  0.83428300  0.44236000  0.65348900  1
  C  343  1  0.15642700  0.44094300  0.65045900  1
  C  344  1  0.83638400  0.40976300  0.64312600  1
  C  345  1  0.79423300  0.39419200  0.63583100  1
  C  346  1  0.74923100  0.41060400  0.63905800  1
  C  347  1  0.74752500  0.44349700  0.64902200  1
  C  348  1  0.78954600  0.45920500  0.65626600  1
  C  349  1  0.94964000  0.61760900  0.75010000  1
  C  350  1  0.95042300  0.64629500  0.76583300  1
  C  351  1  0.99393400  0.66312600  0.76922900  1
  C  352  1  0.03641400  0.65087300  0.75599600  1
  C  353  1  0.03585700  0.62212400  0.74029000  1
  C  354  1  0.19826000  0.44970000  0.66292700  1
  C  355  1  0.24261200  0.43440600  0.65542800  1
  C  356  1  0.24612000  0.41028500  0.63523300  1
  C  357  1  0.20397700  0.40117100  0.62322600  1
  C  358  1  0.15951000  0.41649600  0.63059600  1
  C  370  1  0.03709600  0.48243100  0.67177400  1
  C  371  1  0.03612600  0.51169600  0.68707300  1
  C  372  1  0.99187300  0.52691400  0.69540000  1
  C  373  1  0.94842100  0.51264100  0.68833600  1
  C  374  1  0.94911200  0.48335100  0.67303800  1
  C  375  1  0.99353700  0.46834300  0.66480700  1
  C  380  1  0.11536600  0.45513600  0.65749600  1
  C  381  1  0.07797400  0.46826900  0.66425200  1
  C  382  1  0.87322800  0.45686600  0.66033400  1
  C  383  1  0.90912200  0.46990200  0.66655100  1
  C  384  1  0.99138700  0.55389700  0.70966900  1
  C  385  1  0.99175400  0.57848700  0.72280000  1
  C  389  1  0.98003100  0.38230100  0.81602700  1
  C  390  1  0.95985300  0.38799100  0.84174600  1
  C  391  1  0.96684500  0.41826400  0.85466000  1
  C  392  1  0.99541900  0.44411600  0.84298400  1
  C  393  1  0.01377100  0.43853600  0.81672700  1
  C  394  1  0.00700500  0.40827000  0.80367400  1
  C  395  1  0.99818800  0.47814000  0.85615200  1
  C  396  1  0.95375700  0.49529300  0.84573300  1
  C  397  1  0.95606100  0.51187900  0.82096500  1
  C  398  1  0.91593000  0.52810700  0.81115100  1
  C  399  1  0.87062300  0.52748300  0.82515200  1
  C  400  1  0.86680900  0.50874500  0.84880600  1
  C  401  1  0.90725800  0.49252600  0.85851000  1
  C  402  1  0.99942200  0.47607300  0.88609500  1
  C  403  1  0.04414600  0.49774800  0.84960000  1
  C  404  1  0.04414400  0.53309600  0.85146200  1
  C  405  1  0.08553900  0.55183000  0.84529500  1
  C  406  1  0.12985000  0.53603100  0.83798000  1
  C  407  1  0.13142700  0.50075200  0.83810600  1
  C  408  1  0.08966300  0.48214100  0.84424600  1
  C  409  1  0.02750200  0.45122300  0.89827500  1
  C  410  1  0.03298200  0.45068400  0.92554500  1
  C  411  1  0.01122900  0.47553800  0.94189500  1
  C  412  1  0.98501600  0.50133600  0.93009000  1
  C  413  1  0.97993700  0.50174700  0.90279000  1
  C  430  1  0.16927900  0.55552100  0.83038800  1
  C  431  1  0.97060400  0.35267000  0.80331800  1
  C  434  1  0.83228200  0.54527000  0.81536400  1
  C  436  1  0.01900300  0.47585400  0.96855000  1
  C  438  1  0.02295000  0.38380700  0.14055900  1
  C  439  1  0.04466100  0.38993400  0.11523100  1
  C  440  1  0.03776700  0.42052100  0.10225600  1
  C  441  1  0.00776700  0.44626800  0.11343200  1
  C  442  1  0.98819800  0.44033500  0.13942500  1
  C  443  1  0.99482400  0.40974100  0.15253800  1
  C  444  1  0.00412800  0.48027900  0.09987600  1
  C  445  1  0.04808400  0.49734600  0.11010500  1
  C  446  1  0.04537600  0.51335700  0.13495200  1
  C  447  1  0.08481300  0.52974800  0.14461400  1
  C  448  1  0.12994000  0.52985000  0.13039600  1
  C  449  1  0.13433000  0.51161300  0.10667400  1
  C  450  1  0.09454800  0.49524800  0.09710600  1
  C  451  1  0.00289100  0.47790400  0.06997000  1
  C  452  1  0.95762100  0.50010900  0.10616100  1
  C  453  1  0.95675500  0.53549000  0.10430300  1
  C  454  1  0.91474000  0.55434800  0.11013500  1
  C  455  1  0.87063200  0.53869400  0.11709300  1
  C  456  1  0.86997800  0.50342100  0.11691800  1
  C  457  1  0.91234000  0.48469200  0.11108600  1
  C  458  1  0.97600500  0.45273900  0.05817600  1
  C  459  1  0.97056700  0.45182500  0.03092400  1
  C  460  1  0.99115900  0.47661300  0.01418100  1
  C  461  1  0.01602600  0.50276800  0.02555200  1
  C  462  1  0.02099700  0.50356300  0.05285800  1
  C  479  1  0.83049900  0.55828700  0.12437100  1
  C  480  1  0.03191400  0.35373200  0.15328200  1
  C  483  1  0.16744600  0.54788700  0.14004400  1
  C  485  1  0.98336500  0.47654300  0.98754600  1
  C  487  1  0.47948700  0.88236100  0.31594700  1
  C  488  1  0.46026600  0.88761700  0.34193000  1
  C  489  1  0.46752600  0.91771840  0.35504900  1
  C  490  1  0.49538700  0.94389340  0.34331700  1
  C  491  1  0.51267300  0.93876940  0.31681000  1
  C  492  1  0.50558400  0.90870440  0.30353800  1
  C  493  1  0.49825400  0.97783940  0.35662600  1
  C  494  1  0.45406500  0.99528738  0.34615500  1
  C  495  1  0.45684300  0.01258700  0.32168900  1
  C  496  1  0.41683400  0.02884900  0.31177200  1
  C  497  1  0.37114900  0.02759500  0.32532800  1
  C  498  1  0.36690600  0.00823600  0.34866000  1
  C  499  1  0.40725100  0.99195638  0.35846100  1
  C  500  1  0.49920600  0.97561740  0.38658400  1
  C  501  1  0.54446800  0.99725538  0.35022600  1
  C  502  1  0.54494700  0.03252600  0.35273700  1
  C  503  1  0.58644600  0.05118000  0.34661200  1
  C  504  1  0.63044300  0.03536100  0.33864900  1
  C  505  1  0.63157800  0.00008200  0.33813300  1
  C  506  1  0.58971200  0.98154940  0.34423700  1
  C  507  1  0.52789800  0.95106240  0.39869800  1
  C  508  1  0.53337100  0.95044640  0.42597300  1
  C  509  1  0.51103800  0.97496640  0.44243400  1
  C  510  1  0.48410400  0.00045900  0.43071000  1
  C  511  1  0.47898500  0.00092300  0.40340400  1
  C  528  1  0.66995600  0.05485000  0.33109500  1
  C  529  1  0.46930500  0.85318600  0.30274300  1
  C  532  1  0.33293200  0.04541700  0.31541500  1
  C  534  1  0.51898000  0.97530040  0.46909200  1
  C  536  1  0.52298400  0.88404200  0.64203900  1
  C  537  1  0.54428900  0.88966700  0.61654400  1
  C  538  1  0.53729500  0.92003640  0.60327100  1
  C  539  1  0.50760500  0.94602040  0.61433200  1
  C  540  1  0.48845800  0.94057240  0.64047700  1
  C  541  1  0.49517500  0.91022040  0.65387900  1
  C  542  1  0.50400000  0.97989140  0.60056100  1
  C  543  1  0.54770300  0.99713038  0.61090500  1
  C  544  1  0.54453700  0.01345900  0.63562700  1
  C  545  1  0.58393900  0.02958900  0.64555300  1
  C  546  1  0.62945300  0.02910800  0.63175100  1
  C  547  1  0.63419500  0.01067900  0.60812600  1
  C  548  1  0.59443800  0.99456938  0.59829300  1
  C  549  1  0.50308100  0.97734740  0.57065000  1
  C  550  1  0.45730100  0.99955438  0.60666600  1
  C  551  1  0.45611500  0.03491500  0.60462900  1
  C  552  1  0.41404900  0.05362300  0.61069300  1
  C  553  1  0.37023800  0.03779800  0.61803300  1
  C  554  1  0.36984000  0.00252100  0.61791900  1
  C  555  1  0.41223600  0.98395040  0.61186500  1
  C  556  1  0.47606000  0.95224640  0.55887300  1
  C  557  1  0.47066600  0.95130640  0.53161700  1
  C  558  1  0.49149300  0.97596940  0.51483400  1
  C  559  1  0.51669900  0.00198500  0.52618200  1
  C  560  1  0.52162600  0.00282300  0.55349700  1
  C  577  1  0.33011100  0.05719600  0.62563500  1
  C  578  1  0.53195200  0.85420300  0.65507100  1
  C  581  1  0.66700600  0.04675900  0.64171900  1
  C  583  1  0.48352600  0.97594140  0.48819900  1
  C  585  1  0.50470700  0.75720700  0.72098500  1
  C  586  1  0.66349100  0.59287700  0.80529700  1
  C  587  1  0.34162100  0.59172200  0.80725900  1
  C  588  1  0.66255900  0.56016300  0.81573700  1
  C  589  1  0.70538600  0.54435300  0.82268900  1
  C  590  1  0.74985000  0.56065300  0.81900300  1
  C  591  1  0.75039800  0.59366200  0.80898000  1
  C  592  1  0.70769500  0.60961400  0.80208900  1
  C  593  1  0.54828100  0.76860400  0.70874600  1
  C  594  1  0.54881800  0.79742600  0.69281400  1
  C  595  1  0.50587000  0.81537300  0.68864200  1
  C  596  1  0.46257600  0.80407600  0.70127900  1
  C  597  1  0.46181400  0.77520200  0.71718400  1
  C  598  1  0.29991600  0.59992000  0.79412600  1
  C  599  1  0.25622900  0.58416400  0.80126900  1
  C  600  1  0.25324600  0.56013600  0.82176100  1
  C  601  1  0.29531300  0.55158700  0.83444200  1
  C  602  1  0.33912200  0.56735900  0.82741800  1
  C  614  1  0.45951300  0.63392400  0.78673800  1
  C  615  1  0.45993000  0.66340800  0.77140100  1
  C  616  1  0.50390400  0.67855000  0.76329200  1
  C  617  1  0.54758600  0.66399900  0.77059800  1
  C  618  1  0.54741000  0.63450400  0.78592900  1
  C  619  1  0.50330300  0.61955000  0.79395100  1
  C  624  1  0.38207500  0.60631200  0.80052000  1
  C  625  1  0.41898400  0.61970400  0.79399800  1
  C  626  1  0.62397200  0.60754900  0.79867100  1
  C  627  1  0.58765100  0.62077200  0.79251700  1
  C  628  1  0.50410700  0.70566600  0.74892600  1
  C  629  1  0.50423900  0.73036800  0.73564900  1
  C  633  1  0.49277900  0.75751900  0.23588300  1
  C  634  1  0.33448200  0.59559800  0.15077500  1
  C  635  1  0.65664900  0.59414900  0.14784700  1
  C  636  1  0.33677400  0.56294600  0.14051400  1
  C  637  1  0.29467300  0.54708700  0.13347200  1
  C  638  1  0.24950200  0.56324400  0.13685500  1
  C  639  1  0.24758800  0.59620000  0.14669400  1
  C  640  1  0.28956700  0.61219900  0.15367900  1
  C  641  1  0.45014500  0.76956400  0.24909400  1
  C  642  1  0.45112500  0.79778500  0.26533900  1
  C  643  1  0.49468600  0.81449300  0.26888700  1
  C  644  1  0.53701800  0.80256000  0.25530600  1
  C  645  1  0.53625000  0.77430400  0.23906200  1
  C  646  1  0.69836100  0.60288200  0.16043900  1
  C  647  1  0.74267800  0.58732500  0.15325900  1
  C  648  1  0.74633200  0.56294100  0.13326000  1
  C  649  1  0.70429900  0.55388500  0.12111200  1
  C  650  1  0.65986300  0.56946400  0.12816400  1
  C  662  1  0.53729700  0.63589600  0.16892300  1
  C  663  1  0.53631000  0.66494400  0.18448500  1
  C  664  1  0.49206200  0.68008400  0.19294800  1
  C  665  1  0.44861400  0.66592100  0.18575000  1
  C  666  1  0.44927900  0.63685100  0.17018600  1
  C  667  1  0.49371800  0.62194100  0.16183400  1
  C  672  1  0.61556700  0.60849500  0.15469100  1
  C  673  1  0.57818800  0.62171300  0.16137500  1
  C  674  1  0.37338700  0.61030600  0.15749700  1
  C  675  1  0.40926600  0.62341600  0.16367200  1
  C  676  1  0.49157800  0.70681800  0.20753700  1
  C  677  1  0.49198100  0.73112400  0.22099800  1
  C  681  1  0.00492900  0.25514800  0.21784700  1
  C  682  1  0.16364800  0.09098400  0.30292500  1
  C  683  1  0.84181200  0.09010200  0.30495700  1
  C  684  1  0.16307200  0.05792700  0.31266800  1
  C  685  1  0.20581400  0.04241800  0.32010900  1
  C  686  1  0.24991300  0.05936500  0.31764600  1
  C  687  1  0.25005300  0.09270700  0.30832100  1
  C  688  1  0.20743600  0.10835100  0.30093500  1
  C  689  1  0.04839400  0.26676500  0.20562700  1
  C  690  1  0.04880900  0.29590700  0.19005500  1
  C  691  1  0.00584300  0.31401200  0.18621800  1
  C  692  1  0.96264800  0.30245300  0.19880100  1
  C  693  1  0.96201100  0.27326200  0.21435400  1
  C  694  1  0.79910500  0.09983300  0.29335400  1
  C  695  1  0.75545700  0.08430500  0.30099500  1
  C  696  1  0.75349900  0.05895900  0.32048800  1
  C  697  1  0.79650600  0.04891100  0.33162700  1
  C  698  1  0.84027800  0.06445500  0.32410900  1
  C  710  1  0.95979300  0.13170400  0.28348200  1
  C  711  1  0.96031500  0.16108400  0.26801700  1
  C  712  1  0.00432300  0.17613400  0.25982800  1
  C  713  1  0.04796900  0.16157000  0.26720500  1
  C  714  1  0.04773500  0.13217300  0.28266600  1
  C  715  1  0.00356500  0.11734000  0.29075200  1
  C  720  1  0.88225700  0.10448100  0.29776400  1
  C  721  1  0.91918800  0.11767100  0.29094500  1
  C  722  1  0.12419000  0.10543100  0.29589200  1
  C  723  1  0.08794900  0.11852200  0.28945100  1
  C  724  1  0.00455800  0.20328500  0.24546400  1
  C  725  1  0.00460500  0.22808900  0.23229500  1
  C  729  1  0.99242500  0.25618000  0.73727600  1
  C  730  1  0.83428300  0.09331600  0.65348900  1
  C  731  1  0.15642700  0.09189900  0.65045900  1
  C  732  1  0.83638400  0.06071900  0.64312600  1
  C  733  1  0.79423300  0.04514800  0.63583100  1
  C  734  1  0.74923100  0.06156000  0.63905800  1
  C  735  1  0.74752500  0.09445300  0.64902200  1
  C  736  1  0.78954600  0.11016100  0.65626600  1
  C  737  1  0.94964000  0.26856500  0.75010000  1
  C  738  1  0.95042300  0.29725100  0.76583300  1
  C  739  1  0.99393400  0.31408200  0.76922900  1
  C  740  1  0.03641400  0.30182900  0.75599600  1
  C  741  1  0.03585700  0.27308000  0.74029000  1
  C  742  1  0.19826000  0.10065600  0.66292700  1
  C  743  1  0.24261200  0.08536200  0.65542800  1
  C  744  1  0.24612000  0.06124100  0.63523300  1
  C  745  1  0.20397700  0.05212700  0.62322600  1
  C  746  1  0.15951000  0.06745200  0.63059600  1
  C  758  1  0.03709600  0.13338700  0.67177400  1
  C  759  1  0.03612600  0.16265200  0.68707300  1
  C  760  1  0.99187300  0.17787000  0.69540000  1
  C  761  1  0.94842100  0.16359700  0.68833600  1
  C  762  1  0.94911200  0.13430700  0.67303800  1
  C  763  1  0.99353700  0.11929900  0.66480700  1
  C  768  1  0.11536600  0.10609200  0.65749600  1
  C  769  1  0.07797400  0.11922500  0.66425200  1
  C  770  1  0.87322800  0.10782200  0.66033400  1
  C  771  1  0.90912200  0.12085800  0.66655100  1
  C  772  1  0.99138700  0.20485300  0.70966900  1
  C  773  1  0.99175400  0.22944300  0.72280000  1
  N  242  1  0.78920800  0.89358900  0.82594000  1
  N  243  1  0.21281800  0.89341200  0.82907100  1
  N  244  1  0.50389000  0.19202700  0.67400500  1
  N  290  1  0.21085200  0.89605300  0.12988700  1
  N  291  1  0.78732700  0.89619700  0.12608100  1
  N  292  1  0.49807600  0.19039600  0.28396100  1
  N  338  1  0.28923400  0.39249700  0.32495100  1
  N  339  1  0.71315700  0.39228000  0.32809900  1
  N  340  1  0.00374000  0.69100200  0.17194900  1
  N  386  1  0.71054700  0.39469300  0.63178300  1
  N  387  1  0.28713200  0.39479800  0.62771800  1
  N  388  1  0.99707100  0.69055300  0.78365400  1
  N  630  1  0.78920800  0.54454500  0.82594000  1
  N  631  1  0.21281800  0.54436800  0.82907100  1
  N  632  1  0.50389000  0.84298300  0.67400500  1
  N  678  1  0.21085200  0.54700900  0.12988700  1
  N  679  1  0.78732700  0.54715300  0.12608100  1
  N  680  1  0.49807600  0.84135200  0.28396100  1
  N  726  1  0.28923400  0.04345300  0.32495100  1
  N  727  1  0.71315700  0.04323600  0.32809900  1
  N  728  1  0.00374000  0.34195800  0.17194900  1
  N  774  1  0.71054700  0.04564900  0.63178300  1
  N  775  1  0.28713200  0.04575400  0.62771800  1
  N  776  1  0.99707100  0.34150900  0.78365400  1
