# generated using pymatgen
data_H9C17N4O3
_symmetry_space_group_name_H-M   'P 1'
_cell_length_a   37.71130000
_cell_length_b   62.32970000
_cell_length_c   62.32970000
_cell_angle_alpha   90.00000000
_cell_angle_beta   90.00000000
_cell_angle_gamma   90.00000000
_symmetry_Int_Tables_number   1
_chemical_formula_structural   H9C17N4O3
_chemical_formula_sum   'H576 C1088 N256 O192'
_cell_volume   146508.08003277
_cell_formula_units_Z   64
loop_
 _symmetry_equiv_pos_site_id
 _symmetry_equiv_pos_as_xyz
  1  'x, y, z'
loop_
 _atom_site_type_symbol
 _atom_site_label
 _atom_site_symmetry_multiplicity
 _atom_site_fract_x
 _atom_site_fract_y
 _atom_site_fract_z
 _atom_site_occupancy
  H  7  1  0.03580900  0.13249500  0.29990400  1
  H  8  1  0.11960000  0.09631400  0.32610500  1
  H  9  1  0.06657200  0.14196600  0.36307600  1
  H  16  1  0.03521600  0.11246300  0.27294200  1
  H  17  1  0.09235200  0.07113200  0.23342800  1
  H  18  1  0.12829000  0.08246900  0.29568400  1
  H  23  1  0.15130200  0.05573300  0.24934800  1
  H  24  1  0.14962900  0.11774000  0.35407500  1
  H  25  1  0.01892600  0.16261100  0.34769100  1
  H  26  1  0.01411400  0.10257700  0.23638600  1
  H  33  1  0.04223600  0.86296900  0.80246800  1
  H  34  1  0.11353800  0.90589400  0.77266400  1
  H  35  1  0.06025400  0.85942200  0.73662600  1
  H  42  1  0.03556400  0.88636200  0.82722000  1
  H  43  1  0.09453000  0.92639000  0.86726200  1
  H  44  1  0.13023400  0.91466500  0.80479900  1
  H  49  1  0.15401300  0.94147100  0.85108700  1
  H  50  1  0.11802000  0.90110300  0.72952000  1
  H  51  1  0.01949400  0.83455200  0.75485300  1
  H  52  1  0.01551400  0.89529900  0.86422800  1
  H  59  1  0.03436000  0.75018800  0.18354600  1
  H  60  1  0.12012000  0.72441500  0.14879000  1
  H  61  1  0.06630700  0.68739900  0.19405000  1
  H  68  1  0.03531900  0.77762800  0.16438500  1
  H  69  1  0.09249800  0.81689000  0.12287000  1
  H  70  1  0.12752600  0.75437100  0.13381000  1
  H  75  1  0.15123200  0.80085600  0.10745700  1
  H  76  1  0.14964900  0.69651100  0.17051100  1
  H  77  1  0.01780400  0.70258100  0.21405200  1
  H  78  1  0.01406400  0.81427300  0.15380200  1
  H  85  1  0.04266200  0.24773600  0.91444400  1
  H  86  1  0.11276900  0.27777300  0.95795100  1
  H  87  1  0.06028100  0.31365600  0.91101800  1
  H  94  1  0.03548200  0.22317600  0.93811600  1
  H  95  1  0.09458400  0.18317900  0.97815800  1
  H  96  1  0.13025600  0.24562300  0.96628200  1
  H  101  1  0.15437800  0.19952800  0.99306600  1
  H  102  1  0.11612800  0.32140400  0.95297700  1
  H  103  1  0.02009500  0.29516900  0.88579900  1
  H  104  1  0.01551700  0.18613000  0.94713700  1
  H  111  1  0.80624100  0.86602000  0.29985200  1
  H  112  1  0.72275100  0.90237900  0.32616100  1
  H  113  1  0.77564300  0.85660800  0.36306100  1
  H  120  1  0.80704200  0.88619400  0.27297600  1
  H  121  1  0.74982300  0.92747100  0.23344400  1
  H  122  1  0.71386800  0.91609800  0.29569200  1
  H  127  1  0.69085100  0.94285200  0.24937500  1
  H  128  1  0.69264900  0.88093100  0.35410700  1
  H  129  1  0.82326800  0.83591000  0.34764600  1
  H  130  1  0.82808100  0.89603700  0.23639600  1
  H  137  1  0.79994300  0.13564300  0.80247000  1
  H  138  1  0.72864900  0.09271400  0.77266000  1
  H  139  1  0.78193000  0.13919000  0.73662600  1
  H  146  1  0.80661800  0.11224500  0.82721900  1
  H  147  1  0.74764900  0.07221800  0.86725900  1
  H  148  1  0.71194600  0.08394800  0.80479600  1
  H  153  1  0.68816000  0.05714100  0.85108200  1
  H  154  1  0.72417300  0.09750600  0.72951600  1
  H  155  1  0.82268700  0.16406100  0.75485500  1
  H  156  1  0.82666700  0.10330500  0.86422700  1
  H  163  1  0.80757500  0.24833600  0.18367500  1
  H  164  1  0.72231100  0.27431700  0.14861600  1
  H  165  1  0.77596600  0.31121100  0.19405200  1
  H  172  1  0.80706600  0.22110300  0.16415400  1
  H  173  1  0.74950500  0.18173800  0.12291700  1
  H  174  1  0.71431600  0.24419300  0.13404900  1
  H  179  1  0.69090200  0.19765500  0.10741600  1
  H  180  1  0.69265700  0.30217500  0.17038600  1
  H  181  1  0.82433900  0.29594100  0.21412900  1
  H  182  1  0.82810700  0.18437600  0.15372200  1
  H  189  1  0.79951100  0.75087100  0.91443900  1
  H  190  1  0.72939900  0.72083300  0.95794300  1
  H  191  1  0.78188500  0.68495300  0.91100700  1
  H  198  1  0.80669200  0.77543000  0.93811100  1
  H  199  1  0.74759500  0.81542700  0.97815600  1
  H  200  1  0.71192200  0.75298300  0.96628100  1
  H  205  1  0.68780200  0.79907600  0.99306400  1
  H  206  1  0.72602900  0.67720500  0.95296400  1
  H  207  1  0.82207700  0.70343800  0.88579100  1
  H  208  1  0.82665900  0.81247400  0.94713400  1
  H  215  1  0.80353100  0.86223600  0.80485500  1
  H  216  1  0.72697600  0.90229500  0.77613700  1
  H  217  1  0.77211300  0.85133100  0.74200900  1
  H  224  1  0.81200900  0.88608500  0.82835900  1
  H  225  1  0.75952300  0.92978300  0.86763300  1
  H  226  1  0.71711100  0.91537700  0.80740600  1
  H  231  1  0.70392400  0.94630600  0.85438100  1
  H  232  1  0.69306300  0.87889100  0.74948000  1
  H  233  1  0.81681100  0.82805300  0.76087800  1
  H  234  1  0.83446100  0.89549100  0.86492900  1
  H  241  1  0.80291600  0.13651000  0.29712600  1
  H  242  1  0.72740800  0.09609300  0.32637600  1
  H  243  1  0.77234400  0.14739200  0.36015100  1
  H  250  1  0.81218100  0.11205800  0.27415000  1
  H  251  1  0.75899800  0.06863500  0.23485700  1
  H  252  1  0.71633200  0.08373800  0.29485800  1
  H  257  1  0.70301700  0.05247100  0.24801500  1
  H  258  1  0.69333900  0.11908100  0.35309300  1
  H  259  1  0.81640500  0.17080800  0.34107500  1
  H  260  1  0.83441800  0.10258800  0.23750800  1
  H  267  1  0.80399500  0.24554400  0.91414300  1
  H  268  1  0.72698900  0.27426400  0.95389200  1
  H  269  1  0.77241000  0.30832300  0.90297100  1
  H  276  1  0.81231300  0.22207200  0.93805800  1
  H  277  1  0.75921000  0.18272300  0.98142800  1
  H  278  1  0.71700800  0.24297600  0.96689000  1
  H  283  1  0.70358700  0.19598800  0.99793500  1
  H  284  1  0.69315300  0.30086600  0.93040900  1
  H  285  1  0.81719500  0.28943000  0.87981200  1
  H  286  1  0.83458800  0.18527800  0.94755800  1
  H  293  1  0.79718800  0.75338500  0.19050100  1
  H  294  1  0.73312800  0.72143800  0.14497400  1
  H  295  1  0.77789400  0.68779400  0.19645800  1
  H  302  1  0.81083100  0.77514400  0.16489700  1
  H  303  1  0.75823700  0.81458100  0.12120700  1
  H  304  1  0.71611700  0.75406300  0.13554800  1
  H  309  1  0.70198300  0.80141900  0.10517700  1
  H  310  1  0.72805000  0.67863500  0.15139900  1
  H  311  1  0.81552700  0.70956500  0.22339600  1
  H  312  1  0.83318300  0.81182300  0.15582500  1
  H  319  1  0.03865000  0.13637400  0.80485500  1
  H  320  1  0.11520500  0.09631400  0.77613700  1
  H  321  1  0.07006700  0.14727900  0.74200900  1
  H  328  1  0.03017300  0.11252400  0.82835800  1
  H  329  1  0.08265900  0.06882600  0.86763300  1
  H  330  1  0.12507200  0.08323300  0.80740500  1
  H  335  1  0.13826000  0.05230400  0.85438100  1
  H  336  1  0.14911900  0.11972000  0.74948000  1
  H  337  1  0.02537100  0.17055600  0.76087800  1
  H  338  1  0.00772100  0.10311800  0.86492900  1
  H  345  1  0.03924600  0.86212500  0.29713400  1
  H  346  1  0.11477200  0.90252300  0.32639200  1
  H  347  1  0.06980900  0.85122600  0.36015900  1
  H  354  1  0.02997700  0.88659600  0.27417600  1
  H  355  1  0.08319400  0.93000600  0.23488500  1
  H  356  1  0.12588100  0.91485900  0.29486900  1
  H  361  1  0.13921800  0.94613000  0.24803300  1
  H  362  1  0.14883100  0.87952800  0.35310800  1
  H  363  1  0.02572600  0.82782400  0.34107800  1
  H  364  1  0.00774400  0.89607500  0.23753500  1
  H  371  1  0.03819900  0.75307900  0.91413200  1
  H  372  1  0.11517700  0.72434200  0.95389000  1
  H  373  1  0.06974900  0.69028700  0.90296900  1
  H  380  1  0.02987000  0.77653700  0.93807300  1
  H  381  1  0.08304400  0.81588200  0.98141800  1
  H  382  1  0.12526400  0.75565200  0.96681200  1
  H  387  1  0.13861600  0.80260600  0.99794800  1
  H  388  1  0.14901200  0.69774100  0.93041300  1
  H  389  1  0.02497300  0.70918800  0.87980700  1
  H  390  1  0.00761200  0.81333400  0.94758800  1
  H  397  1  0.04499500  0.24522300  0.19050100  1
  H  398  1  0.10905600  0.27717400  0.14497700  1
  H  399  1  0.06428400  0.31081500  0.19646200  1
  H  406  1  0.03135100  0.22347000  0.16489400  1
  H  407  1  0.08394900  0.18403400  0.12120300  1
  H  408  1  0.12607300  0.24455000  0.13555100  1
  H  413  1  0.14020700  0.19719600  0.10517900  1
  H  414  1  0.11412900  0.31997700  0.15140200  1
  H  415  1  0.02663900  0.28904700  0.22339300  1
  H  416  1  0.00900100  0.18679100  0.15582000  1
  H  423  1  0.54218800  0.63685700  0.79704800  1
  H  424  1  0.60869500  0.59208200  0.82818300  1
  H  425  1  0.55865700  0.64065400  0.86314900  1
  H  432  1  0.53386400  0.61224300  0.77318000  1
  H  433  1  0.59262300  0.57098800  0.73413500  1
  H  434  1  0.62863400  0.58451300  0.79619300  1
  H  439  1  0.65300300  0.55689200  0.75089400  1
  H  440  1  0.61142700  0.59612300  0.87046800  1
  H  441  1  0.51925500  0.66606900  0.84424600  1
  H  442  1  0.51375600  0.60205300  0.73632900  1
  H  449  1  0.54245300  0.36151500  0.30491700  1
  H  450  1  0.60815700  0.40653500  0.27353600  1
  H  451  1  0.55744300  0.35813100  0.23865500  1
  H  458  1  0.53401000  0.38631200  0.32868800  1
  H  459  1  0.59329400  0.42735600  0.36766900  1
  H  460  1  0.62886200  0.41379100  0.30550600  1
  H  465  1  0.65341200  0.44151700  0.35095500  1
  H  466  1  0.61174800  0.40273900  0.23181600  1
  H  467  1  0.51883600  0.33238900  0.25783700  1
  H  468  1  0.51408200  0.39650800  0.36557200  1
  H  475  1  0.54229400  0.25324200  0.68870000  1
  H  476  1  0.60797400  0.22198400  0.64356300  1
  H  477  1  0.55829400  0.18707300  0.69231500  1
  H  484  1  0.53383200  0.27711000  0.66404600  1
  H  485  1  0.59288300  0.31617000  0.62293400  1
  H  486  1  0.62844300  0.25395400  0.63622600  1
  H  491  1  0.65314600  0.29928300  0.60877900  1
  H  492  1  0.60952800  0.17939100  0.64752900  1
  H  493  1  0.51938000  0.20613300  0.71792700  1
  H  494  1  0.51386700  0.31418100  0.65365600  1
  H  501  1  0.54240000  0.74547900  0.41336000  1
  H  502  1  0.60853600  0.77675200  0.45823300  1
  H  503  1  0.55798100  0.81168500  0.40981400  1
  H  510  1  0.53406000  0.72168600  0.43811900  1
  H  511  1  0.59323600  0.68268600  0.47920300  1
  H  512  1  0.62903200  0.74476700  0.46553400  1
  H  517  1  0.65350400  0.69938900  0.49329800  1
  H  518  1  0.61157500  0.81874300  0.45439300  1
  H  519  1  0.51912000  0.79248200  0.38412800  1
  H  520  1  0.51403700  0.68482900  0.44836100  1
  H  527  1  0.30005900  0.36179700  0.79707400  1
  H  528  1  0.23337600  0.40651600  0.82815700  1
  H  529  1  0.28350100  0.35801200  0.86316500  1
  H  536  1  0.30829500  0.38637300  0.77317200  1
  H  537  1  0.24956100  0.42763100  0.73412200  1
  H  538  1  0.21351300  0.41410300  0.79616800  1
  H  543  1  0.18918400  0.44173500  0.75087000  1
  H  544  1  0.23062800  0.40250000  0.87044000  1
  H  545  1  0.32284700  0.33261200  0.84425500  1
  H  546  1  0.32842100  0.39656000  0.73632600  1
  H  553  1  0.29972200  0.63710100  0.30492400  1
  H  554  1  0.23404600  0.59206400  0.27353900  1
  H  555  1  0.28475000  0.64047100  0.23865800  1
  H  562  1  0.30817300  0.61229900  0.32869100  1
  H  563  1  0.24889100  0.57125100  0.36767200  1
  H  564  1  0.21332000  0.58482100  0.30551100  1
  H  569  1  0.18877200  0.55709200  0.35095800  1
  H  570  1  0.23049500  0.59584700  0.23181400  1
  H  571  1  0.32334100  0.66622300  0.25784300  1
  H  572  1  0.32810300  0.60210000  0.36557500  1
  H  579  1  0.29988900  0.74536800  0.68870000  1
  H  580  1  0.23421000  0.77662600  0.64356300  1
  H  581  1  0.28388800  0.81153800  0.69231300  1
  H  588  1  0.30834800  0.72150000  0.66404600  1
  H  589  1  0.24929800  0.68244000  0.62293400  1
  H  590  1  0.21374100  0.74465600  0.63622600  1
  H  595  1  0.18903500  0.69932800  0.60877900  1
  H  596  1  0.23265800  0.81922100  0.64752900  1
  H  597  1  0.32280200  0.79247800  0.71792700  1
  H  598  1  0.32831500  0.68442800  0.65365800  1
  H  605  1  0.29977700  0.25313800  0.41335800  1
  H  606  1  0.23367200  0.22186400  0.45824700  1
  H  607  1  0.28421500  0.18692900  0.40982400  1
  H  614  1  0.30812800  0.27693100  0.43812000  1
  H  615  1  0.24894900  0.31593000  0.47920600  1
  H  616  1  0.21315400  0.25384800  0.46553200  1
  H  621  1  0.18868100  0.29922600  0.49329900  1
  H  622  1  0.23066800  0.17986600  0.45441700  1
  H  623  1  0.32305700  0.20613600  0.38412800  1
  H  624  1  0.32815100  0.31378600  0.44836400  1
  H  631  1  0.29663500  0.35849000  0.30747100  1
  H  632  1  0.23826200  0.40607400  0.27467800  1
  H  633  1  0.27942300  0.35330500  0.24142300  1
  H  640  1  0.31184800  0.38469900  0.32873700  1
  H  641  1  0.26051800  0.42992300  0.36719600  1
  H  642  1  0.21763900  0.41428700  0.30717100  1
  H  647  1  0.20435800  0.44591700  0.35388900  1
  H  648  1  0.23873300  0.40195400  0.23287300  1
  H  649  1  0.31573600  0.32576600  0.26346500  1
  H  650  1  0.33496300  0.39522900  0.36513100  1
  H  657  1  0.29656600  0.64000500  0.79492100  1
  H  658  1  0.23848400  0.59257500  0.82817300  1
  H  659  1  0.28091800  0.64525100  0.86107200  1
  H  666  1  0.31196000  0.61359500  0.77388300  1
  H  667  1  0.25958100  0.56889200  0.73534800  1
  H  668  1  0.21750200  0.58443900  0.79562500  1
  H  673  1  0.20330300  0.55305400  0.74873300  1
  H  674  1  0.23687500  0.59723800  0.86998000  1
  H  675  1  0.31640400  0.67276600  0.83892600  1
  H  676  1  0.33459500  0.60322100  0.73737900  1
  H  683  1  0.29640200  0.74313700  0.41025900  1
  H  684  1  0.23866700  0.77640300  0.45783000  1
  H  685  1  0.28064500  0.80927900  0.40500400  1
  H  692  1  0.31191200  0.72208600  0.43662500  1
  H  693  1  0.25959100  0.68347500  0.48129900  1
  H  694  1  0.21765300  0.74385600  0.46599400  1
  H  699  1  0.20346700  0.69691000  0.49730500  1
  H  700  1  0.23796200  0.81840700  0.45317200  1
  H  701  1  0.31600300  0.78685600  0.37733700  1
  H  702  1  0.33459200  0.68540500  0.44707700  1
  H  709  1  0.29659800  0.25541600  0.69176600  1
  H  710  1  0.23804800  0.22235600  0.64440500  1
  H  711  1  0.28036200  0.18932200  0.69702200  1
  H  718  1  0.31181900  0.27655400  0.66546400  1
  H  719  1  0.25989200  0.31507000  0.62056100  1
  H  720  1  0.21746700  0.25489000  0.63611600  1
  H  725  1  0.20350000  0.30172400  0.60482200  1
  H  726  1  0.23678900  0.18039600  0.64903900  1
  H  727  1  0.31615700  0.21173900  0.72467700  1
  H  728  1  0.33460500  0.31301800  0.65527500  1
  H  735  1  0.54554200  0.64012000  0.30747100  1
  H  736  1  0.60392200  0.59253800  0.27468000  1
  H  737  1  0.56276200  0.64530700  0.24142400  1
  H  744  1  0.53033200  0.61391100  0.32873900  1
  H  745  1  0.58166400  0.56868700  0.36719600  1
  H  746  1  0.62454200  0.58432300  0.30717100  1
  H  751  1  0.63782500  0.55269300  0.35388900  1
  H  752  1  0.60345300  0.59665800  0.23287400  1
  H  753  1  0.52644700  0.67284300  0.26346500  1
  H  754  1  0.50721900  0.60338200  0.36513200  1
  H  761  1  0.54565100  0.35859300  0.79491300  1
  H  762  1  0.60368100  0.40604200  0.82817200  1
  H  763  1  0.56130100  0.35334500  0.86106400  1
  H  770  1  0.53023100  0.38500700  0.77388100  1
  H  771  1  0.58259200  0.42972100  0.73534800  1
  H  772  1  0.62468000  0.41417300  0.79562400  1
  H  777  1  0.63886700  0.44556300  0.74873300  1
  H  778  1  0.60526900  0.40138000  0.86997800  1
  H  779  1  0.52584500  0.32582200  0.83891600  1
  H  780  1  0.50758800  0.39538600  0.73737900  1
  H  787  1  0.54578100  0.25547400  0.41025700  1
  H  788  1  0.60351900  0.22220700  0.45782800  1
  H  789  1  0.56154000  0.18933200  0.40500300  1
  H  796  1  0.53027300  0.27652500  0.43662300  1
  H  797  1  0.58259200  0.31513500  0.48129700  1
  H  798  1  0.62453200  0.25475500  0.46599400  1
  H  803  1  0.63871600  0.30170000  0.49730500  1
  H  804  1  0.60423000  0.18020300  0.45317100  1
  H  805  1  0.52617900  0.21175500  0.37733500  1
  H  806  1  0.50759100  0.31320500  0.44707600  1
  H  813  1  0.54558400  0.74319500  0.69176600  1
  H  814  1  0.60413500  0.77625300  0.64440500  1
  H  815  1  0.56182100  0.80928800  0.69702200  1
  H  822  1  0.53036400  0.72205500  0.66546400  1
  H  823  1  0.58229000  0.68353900  0.62056300  1
  H  824  1  0.62471500  0.74371900  0.63611600  1
  H  829  1  0.63868100  0.69688600  0.60482200  1
  H  830  1  0.60539400  0.81821300  0.64903900  1
  H  831  1  0.52602500  0.78687200  0.72467700  1
  H  832  1  0.50758000  0.68559100  0.65527500  1
  H  843  1  0.09347700  0.01857500  0.29807000  1
  H  844  1  0.09367500  0.98066200  0.29916400  1
  H  846  1  0.19492400  0.96157800  0.25790400  1
  H  850  1  0.28583500  0.00945500  0.24505000  1
  H  863  1  0.09339000  0.97944900  0.80404500  1
  H  864  1  0.09280000  0.01739200  0.80327800  1
  H  866  1  0.19397000  0.03687900  0.84439300  1
  H  870  1  0.28581600  0.98946200  0.85693300  1
  H  883  1  0.09347400  0.75220000  0.07018300  1
  H  884  1  0.09358100  0.75124500  0.03227200  1
  H  886  1  0.19464300  0.79268000  0.01323700  1
  H  890  1  0.28573100  0.80531100  0.06109800  1
  H  903  1  0.09324300  0.24633400  0.03120000  1
  H  904  1  0.09290900  0.24735700  0.06913700  1
  H  906  1  0.19439800  0.20643300  0.08860400  1
  H  910  1  0.28575500  0.19344500  0.04108900  1
  H  923  1  0.74873600  0.98003300  0.29806300  1
  H  924  1  0.74854700  0.01794600  0.29914800  1
  H  926  1  0.64729700  0.03703100  0.25789100  1
  H  930  1  0.55636900  0.98916100  0.24505600  1
  H  943  1  0.74879100  0.01916000  0.80404400  1
  H  944  1  0.74938300  0.98121700  0.80327800  1
  H  946  1  0.64821400  0.96173100  0.84439300  1
  H  950  1  0.55636600  0.00914700  0.85693300  1
  H  963  1  0.74878600  0.24620400  0.07037100  1
  H  964  1  0.74886000  0.24716000  0.03245500  1
  H  966  1  0.64765500  0.20591900  0.01325500  1
  H  970  1  0.55636900  0.19326600  0.06099600  1
  H  983  1  0.74894300  0.75227500  0.03120100  1
  H  984  1  0.74927900  0.75125300  0.06913700  1
  H  986  1  0.64779000  0.79217900  0.08860400  1
  H  990  1  0.55643000  0.80516300  0.04108900  1
  H  1003  1  0.59204500  0.51882800  0.79801600  1
  H  1004  1  0.59196800  0.48091500  0.79912900  1
  H  1006  1  0.69363800  0.46158600  0.75833300  1
  H  1010  1  0.78480200  0.50926900  0.74535600  1
  H  1023  1  0.59201100  0.47947800  0.30412800  1
  H  1024  1  0.59149600  0.51741100  0.30320700  1
  H  1026  1  0.69302000  0.53696200  0.34400100  1
  H  1030  1  0.78483400  0.48957200  0.35667300  1
  H  1043  1  0.59199800  0.25232600  0.57057200  1
  H  1044  1  0.59187000  0.25127800  0.53265900  1
  H  1046  1  0.69349200  0.29212400  0.51334700  1
  H  1050  1  0.78474100  0.30499400  0.56100700  1
  H  1063  1  0.59209300  0.74624400  0.53123900  1
  H  1064  1  0.59169000  0.74727300  0.56917200  1
  H  1066  1  0.69333300  0.70655700  0.58871400  1
  H  1070  1  0.78491100  0.69365200  0.54126200  1
  H  1083  1  0.25012800  0.47978200  0.79800800  1
  H  1084  1  0.25020500  0.51769500  0.79912600  1
  H  1086  1  0.14853500  0.53703100  0.75833300  1
  H  1090  1  0.05736800  0.48934900  0.74535200  1
  H  1103  1  0.25017100  0.51913300  0.30412800  1
  H  1104  1  0.25068500  0.48119900  0.30320700  1
  H  1106  1  0.14916200  0.46164800  0.34400100  1
  H  1110  1  0.05734800  0.50903800  0.35667300  1
  H  1123  1  0.25018400  0.74628500  0.57057400  1
  H  1124  1  0.25031100  0.74733200  0.53265900  1
  H  1126  1  0.14869000  0.70648700  0.51334700  1
  H  1130  1  0.05744100  0.69361600  0.56100700  1
  H  1143  1  0.25009100  0.25236800  0.53123900  1
  H  1144  1  0.25049300  0.25133800  0.56917000  1
  H  1146  1  0.14884700  0.29205300  0.58871400  1
  H  1150  1  0.05727200  0.30495900  0.54126200  1
  H  1163  1  0.15384700  0.16157300  0.36736100  1
  H  1164  1  0.19489100  0.18250700  0.38726600  1
  H  1166  1  0.20921100  0.14331200  0.45196600  1
  H  1170  1  0.18111900  0.07136800  0.45948100  1
  H  1183  1  0.15675900  0.83463600  0.73646100  1
  H  1184  1  0.19497300  0.81378700  0.71436600  1
  H  1186  1  0.20662500  0.85539100  0.65119700  1
  H  1190  1  0.17857800  0.92796200  0.64547900  1
  H  1203  1  0.15404900  0.68283200  0.21360100  1
  H  1204  1  0.19533400  0.66296000  0.23435100  1
  H  1206  1  0.20957500  0.59836200  0.19503200  1
  H  1210  1  0.18108100  0.59074200  0.12319000  1
  H  1223  1  0.15675700  0.31333200  0.88669800  1
  H  1224  1  0.19465100  0.33540300  0.86560800  1
  H  1226  1  0.20676200  0.39868100  0.90708600  1
  H  1230  1  0.17961900  0.40480700  0.97979000  1
  H  1243  1  0.68841400  0.83704400  0.36735800  1
  H  1244  1  0.64734700  0.81611000  0.38724500  1
  H  1246  1  0.63296700  0.85530000  0.45194500  1
  H  1250  1  0.66107500  0.92723700  0.45949500  1
  H  1263  1  0.68542300  0.16397300  0.73646300  1
  H  1264  1  0.64720900  0.18482200  0.71436700  1
  H  1266  1  0.63555700  0.14321900  0.65119800  1
  H  1270  1  0.66360200  0.07064800  0.64548000  1
  H  1283  1  0.68823900  0.31578400  0.21359800  1
  H  1284  1  0.64692000  0.33563100  0.23434700  1
  H  1286  1  0.63259300  0.40022800  0.19503200  1
  H  1290  1  0.66110400  0.40787900  0.12319600  1
  H  1303  1  0.68539900  0.68527500  0.88668500  1
  H  1304  1  0.64748800  0.66320500  0.86560500  1
  H  1306  1  0.63536900  0.59993700  0.90709200  1
  H  1310  1  0.66254900  0.59380000  0.97979100  1
  H  1323  1  0.68841200  0.83553400  0.73523800  1
  H  1324  1  0.64702600  0.81508000  0.71503100  1
  H  1326  1  0.63308100  0.85505900  0.65103100  1
  H  1330  1  0.66295800  0.92669900  0.64283000  1
  H  1343  1  0.68815700  0.16364900  0.36697400  1
  H  1344  1  0.64638400  0.18376500  0.38732900  1
  H  1346  1  0.63261900  0.14306100  0.45091000  1
  H  1350  1  0.66440800  0.07169800  0.45945000  1
  H  1363  1  0.68803200  0.31514500  0.88716000  1
  H  1364  1  0.64646400  0.33533100  0.86684200  1
  H  1366  1  0.63272800  0.39930100  0.90687400  1
  H  1370  1  0.66318000  0.40769800  0.97838300  1
  H  1383  1  0.68352700  0.68508600  0.21707800  1
  H  1384  1  0.64510600  0.66228800  0.23726900  1
  H  1386  1  0.63509300  0.60010100  0.19442100  1
  H  1390  1  0.66525400  0.59427200  0.12219900  1
  H  1403  1  0.15376800  0.16307600  0.73523700  1
  H  1404  1  0.19515500  0.18353000  0.71503000  1
  H  1406  1  0.20910300  0.14355100  0.65103100  1
  H  1410  1  0.17922400  0.07191100  0.64282800  1
  H  1423  1  0.15400000  0.83495000  0.36698500  1
  H  1424  1  0.19578000  0.81483800  0.38733700  1
  H  1426  1  0.20957100  0.85554900  0.45091200  1
  H  1430  1  0.17776000  0.92690600  0.45947400  1
  H  1443  1  0.15414100  0.68347300  0.88716000  1
  H  1444  1  0.19571800  0.66329400  0.86684200  1
  H  1446  1  0.20946100  0.59931900  0.90686900  1
  H  1450  1  0.17900700  0.59091900  0.97837800  1
  H  1463  1  0.15866100  0.31352600  0.21707800  1
  H  1464  1  0.19708100  0.33632400  0.23726900  1
  H  1466  1  0.20709000  0.39851300  0.19441900  1
  H  1470  1  0.17692400  0.40433800  0.12219900  1
  H  1483  1  0.99960600  0.13129700  0.20994600  1
  H  1484  1  0.99734300  0.15818400  0.18272300  1
  H  1486  1  0.10270800  0.14644400  0.14271800  1
  H  1490  1  0.20156000  0.11122400  0.16905300  1
  H  1503  1  0.99998600  0.86760900  0.89131700  1
  H  1504  1  0.99695600  0.84121700  0.91902200  1
  H  1506  1  0.10195400  0.85301700  0.95927600  1
  H  1510  1  0.20166800  0.88767900  0.93319900  1
  H  1523  1  0.99944000  0.84062600  0.18273800  1
  H  1524  1  0.99680200  0.86813200  0.20934300  1
  H  1526  1  0.10245300  0.90792000  0.19781900  1
  H  1530  1  0.20176200  0.88182300  0.16273000  1
  H  1543  1  0.00014300  0.15919200  0.91926100  1
  H  1544  1  0.99705600  0.13145200  0.89290600  1
  H  1546  1  0.10193100  0.09109700  0.90480900  1
  H  1550  1  0.20167000  0.11723800  0.93938000  1
  H  1563  1  0.84257800  0.86731200  0.20995800  1
  H  1564  1  0.84484000  0.84042600  0.18273500  1
  H  1566  1  0.73947900  0.85217100  0.14272700  1
  H  1570  1  0.64062800  0.88739100  0.16906100  1
  H  1583  1  0.84219600  0.13099600  0.89130800  1
  H  1584  1  0.84523200  0.15739000  0.91901300  1
  H  1586  1  0.74023700  0.14560000  0.95927000  1
  H  1590  1  0.64051600  0.11093200  0.93320300  1
  H  1603  1  0.84270500  0.15804600  0.18271400  1
  H  1604  1  0.84534100  0.13054800  0.20932700  1
  H  1606  1  0.73972000  0.09073700  0.19779200  1
  H  1610  1  0.64041300  0.11687700  0.16274400  1
  H  1623  1  0.84203400  0.83941300  0.91926000  1
  H  1624  1  0.84512300  0.86715500  0.89290500  1
  H  1626  1  0.74025300  0.90751300  0.90481100  1
  H  1630  1  0.64051400  0.88136900  0.93937900  1
  H  1643  1  0.49861400  0.63001100  0.70937300  1
  H  1644  1  0.49602400  0.65676200  0.68203600  1
  H  1646  1  0.60261200  0.64623300  0.64294900  1
  H  1650  1  0.70223500  0.60790900  0.66475800  1
  H  1663  1  0.49872600  0.36872100  0.39254800  1
  H  1664  1  0.49613500  0.34193000  0.41986400  1
  H  1666  1  0.60272400  0.35240800  0.45892700  1
  H  1670  1  0.70183500  0.39284000  0.43952400  1
  H  1683  1  0.49875000  0.34103000  0.68181400  1
  H  1684  1  0.49613000  0.36838900  0.70853400  1
  H  1686  1  0.60277700  0.40739300  0.69807000  1
  H  1690  1  0.70177900  0.38819800  0.65739600  1
  H  1703  1  0.49850600  0.65774300  0.42074500  1
  H  1704  1  0.49574300  0.63033700  0.39405000  1
  H  1706  1  0.60250900  0.59138900  0.40432100  1
  H  1710  1  0.70170700  0.61052600  0.44487100  1
  H  1723  1  0.34356800  0.36860400  0.70936800  1
  H  1724  1  0.34616100  0.34185000  0.68203300  1
  H  1726  1  0.23956700  0.35237400  0.64294700  1
  H  1730  1  0.13994500  0.39071100  0.66474200  1
  H  1743  1  0.34345900  0.62988700  0.39255000  1
  H  1744  1  0.34604700  0.65667900  0.41986600  1
  H  1746  1  0.23945800  0.64620400  0.45892700  1
  H  1750  1  0.14035200  0.60575600  0.43953800  1
  H  1763  1  0.34343000  0.65757900  0.68181600  1
  H  1764  1  0.34605300  0.63022100  0.70853500  1
  H  1766  1  0.23940200  0.59121700  0.69807200  1
  H  1770  1  0.14040700  0.61039400  0.65737800  1
  H  1783  1  0.34367900  0.34087300  0.42074800  1
  H  1784  1  0.34644300  0.36827700  0.39405100  1
  H  1786  1  0.23966900  0.40722000  0.40431600  1
  H  1790  1  0.14049200  0.38813000  0.44491300  1
  H  1803  1  0.95126600  0.16379200  0.29434800  1
  H  1804  1  0.88813200  0.16527600  0.29474200  1
  H  1806  1  0.85866800  0.14849400  0.36672100  1
  H  1810  1  0.93509600  0.13882300  0.42506700  1
  H  1823  1  0.95194000  0.83492900  0.80778700  1
  H  1824  1  0.88872300  0.83358000  0.80744200  1
  H  1826  1  0.85920100  0.85018700  0.73542500  1
  H  1830  1  0.93524700  0.86046300  0.67698900  1
  H  1843  1  0.95004700  0.75613200  0.21504500  1
  H  1844  1  0.88689100  0.75557900  0.21664000  1
  H  1846  1  0.85793400  0.68340800  0.20038800  1
  H  1850  1  0.93453400  0.62518000  0.18981800  1
  H  1863  1  0.95224200  0.24255000  0.88634600  1
  H  1864  1  0.88901700  0.24288300  0.88518300  1
  H  1866  1  0.85958000  0.31485000  0.90204300  1
  H  1870  1  0.93588600  0.37327000  0.91156500  1
  H  1883  1  0.89089500  0.83481900  0.29433200  1
  H  1884  1  0.95403200  0.83336700  0.29473400  1
  H  1886  1  0.98344800  0.85015200  0.36671900  1
  H  1890  1  0.90705400  0.85997000  0.42506900  1
  H  1903  1  0.89024000  0.16368300  0.80778700  1
  H  1904  1  0.95345900  0.16503000  0.80744200  1
  H  1906  1  0.98298100  0.14842300  0.73542500  1
  H  1910  1  0.90693500  0.13814700  0.67698900  1
  H  1923  1  0.89214100  0.24244600  0.21502900  1
  H  1924  1  0.95529400  0.24301100  0.21663200  1
  H  1926  1  0.98421900  0.31519000  0.20039900  1
  H  1930  1  0.90761900  0.37340900  0.18979700  1
  H  1943  1  0.88992400  0.75606000  0.88634100  1
  H  1944  1  0.95315200  0.75573100  0.88518500  1
  H  1946  1  0.98259400  0.68376500  0.90205000  1
  H  1950  1  0.90629600  0.62534100  0.91157200  1
  H  1963  1  0.45095200  0.66518500  0.79216300  1
  H  1964  1  0.38773500  0.66653100  0.79264600  1
  H  1966  1  0.35860900  0.64879700  0.86438900  1
  H  1970  1  0.43606000  0.64155100  0.92235900  1
  H  1983  1  0.45063100  0.33324100  0.30994400  1
  H  1984  1  0.38736700  0.33198600  0.30945900  1
  H  1986  1  0.35830600  0.34996500  0.23775500  1
  H  1990  1  0.43580000  0.35718600  0.17977800  1
  H  2003  1  0.45073800  0.25814300  0.71691300  1
  H  2004  1  0.38751500  0.25758700  0.71817600  1
  H  2006  1  0.35868800  0.18575300  0.70068700  1
  H  2010  1  0.43631500  0.12785400  0.69323400  1
  H  2023  1  0.45088600  0.74046100  0.38492900  1
  H  2024  1  0.38762400  0.74091800  0.38358300  1
  H  2026  1  0.35841200  0.81261400  0.40150500  1
  H  2030  1  0.43585900  0.87058800  0.40871000  1
  H  2043  1  0.39127000  0.33344100  0.79216600  1
  H  2044  1  0.45448200  0.33205500  0.79264800  1
  H  2046  1  0.48364500  0.34976600  0.86439000  1
  H  2050  1  0.40618100  0.35697100  0.92235500  1
  H  2063  1  0.39154800  0.66537000  0.30994400  1
  H  2064  1  0.45481600  0.66666667  0.30945900  1
  H  2066  1  0.48387300  0.64864600  0.23775500  1
  H  2070  1  0.40637900  0.64142400  0.17977800  1
  H  2083  1  0.39144500  0.74046700  0.71691300  1
  H  2084  1  0.45466700  0.74102400  0.71817600  1
  H  2086  1  0.48349400  0.81285800  0.70068700  1
  H  2090  1  0.40586800  0.87075600  0.69323400  1
  H  2103  1  0.39129900  0.25815300  0.38492900  1
  H  2104  1  0.45456100  0.25769300  0.38358300  1
  H  2106  1  0.48377000  0.18599600  0.40150500  1
  H  2110  1  0.40632100  0.12802500  0.40871000  1
  C  1  1  0.07722700  0.11120200  0.30910300  1
  C  2  1  0.05145100  0.12759800  0.31223300  1
  C  3  1  0.04620600  0.13832900  0.33195200  1
  C  4  1  0.06902700  0.13342300  0.34909700  1
  C  5  1  0.09670100  0.11829700  0.34685400  1
  C  6  1  0.09942000  0.10708800  0.32716700  1
  C  10  1  0.08136800  0.10019800  0.28850300  1
  C  11  1  0.05688000  0.10289200  0.27127200  1
  C  12  1  0.06106100  0.09309700  0.25099900  1
  C  13  1  0.08973900  0.07895700  0.24782700  1
  C  14  1  0.11406800  0.07496800  0.26447700  1
  C  15  1  0.10993900  0.08586800  0.28421800  1
  C  19  1  0.13714800  0.05787200  0.26261800  1
  C  20  1  0.12564700  0.11855700  0.36078300  1
  C  21  1  0.01851200  0.15268900  0.33516900  1
  C  22  1  0.03963200  0.09935500  0.23407500  1
  C  27  1  0.07771100  0.88720600  0.79149300  1
  C  28  1  0.05441500  0.86935400  0.78934300  1
  C  29  1  0.04665400  0.85957400  0.76944200  1
  C  30  1  0.06499200  0.86667700  0.75113600  1
  C  31  1  0.09066500  0.88308400  0.75250800  1
  C  32  1  0.09574700  0.89358200  0.77239700  1
  C  36  1  0.08255300  0.89788300  0.81211400  1
  C  37  1  0.05786600  0.89538200  0.82925800  1
  C  38  1  0.06257500  0.90479600  0.84967500  1
  C  39  1  0.09164900  0.91866900  0.85282600  1
  C  40  1  0.11597100  0.92259900  0.83611800  1
  C  41  1  0.11166200  0.91177700  0.81633600  1
  C  45  1  0.13919200  0.93961000  0.83805300  1
  C  46  1  0.11296100  0.88653900  0.73517100  1
  C  47  1  0.01940600  0.84482000  0.76708800  1
  C  48  1  0.04097800  0.89863700  0.86659600  1
  C  53  1  0.07681800  0.74120700  0.16292700  1
  C  54  1  0.05052800  0.73798500  0.17901300  1
  C  55  1  0.04542500  0.71835700  0.18994200  1
  C  56  1  0.06868700  0.70132200  0.18540600  1
  C  57  1  0.09661700  0.70361300  0.17047600  1
  C  58  1  0.09949400  0.72327100  0.15923900  1
  C  62  1  0.08102800  0.76178100  0.15185700  1
  C  63  1  0.05679600  0.77913100  0.15464600  1
  C  64  1  0.06102900  0.79935200  0.14476600  1
  C  65  1  0.08971700  0.80246600  0.13063000  1
  C  66  1  0.11383900  0.78572500  0.12658700  1
  C  67  1  0.10946600  0.76594800  0.13738800  1
  C  71  1  0.13703000  0.78759600  0.10954300  1
  C  72  1  0.12562600  0.68979600  0.17111100  1
  C  73  1  0.01752200  0.71514000  0.20417600  1
  C  74  1  0.03983200  0.81630900  0.15113200  1
  C  79  1  0.07762400  0.25884300  0.93889900  1
  C  80  1  0.05466800  0.26090300  0.92087500  1
  C  81  1  0.04697700  0.28078400  0.91103700  1
  C  82  1  0.06500300  0.29914600  0.91828000  1
  C  83  1  0.09026500  0.29783700  0.93492000  1
  C  84  1  0.09530900  0.27798300  0.94546100  1
  C  88  1  0.08249000  0.23826700  0.94960700  1
  C  89  1  0.05779600  0.22113500  0.94713300  1
  C  90  1  0.06257000  0.20073600  0.95656300  1
  C  91  1  0.09165800  0.19761000  0.97043300  1
  C  92  1  0.11598400  0.21432200  0.97432300  1
  C  93  1  0.11165900  0.23407900  0.96346300  1
  C  97  1  0.13925800  0.21244900  0.99130700  1
  C  98  1  0.11245600  0.31516100  0.93850300  1
  C  99  1  0.01973800  0.28312800  0.89630100  1
  C  100  1  0.04101200  0.18380200  0.95041800  1
  C  105  1  0.76498800  0.88740500  0.30911100  1
  C  106  1  0.79068900  0.87095900  0.31220700  1
  C  107  1  0.79595800  0.86023000  0.33192700  1
  C  108  1  0.77319500  0.86516200  0.34909000  1
  C  109  1  0.74557200  0.88032800  0.34687500  1
  C  110  1  0.74286700  0.89155700  0.32719900  1
  C  114  1  0.76083800  0.89841400  0.28851700  1
  C  115  1  0.78534500  0.89573800  0.27129300  1
  C  116  1  0.78114000  0.90552000  0.25101500  1
  C  117  1  0.75244500  0.91965000  0.24784300  1
  C  118  1  0.72811300  0.92363000  0.26449300  1
  C  119  1  0.73224500  0.91272500  0.28423000  1
  C  123  1  0.70502700  0.94072300  0.26263700  1
  C  124  1  0.71663100  0.88008400  0.36080900  1
  C  125  1  0.82357500  0.84581200  0.33511100  1
  C  126  1  0.80256300  0.89926000  0.23408700  1
  C  131  1  0.76447100  0.11140400  0.79149100  1
  C  132  1  0.78776600  0.12925800  0.78934300  1
  C  133  1  0.79552800  0.13903800  0.76944200  1
  C  134  1  0.77719400  0.13193500  0.75113600  1
  C  135  1  0.75152300  0.11552500  0.75250600  1
  C  136  1  0.74643900  0.10502700  0.77239400  1
  C  140  1  0.75962900  0.10072600  0.81211200  1
  C  141  1  0.78431400  0.10322700  0.82925500  1
  C  142  1  0.77960400  0.09381100  0.84967200  1
  C  143  1  0.75052800  0.07993900  0.85282300  1
  C  144  1  0.72620700  0.07601300  0.83611700  1
  C  145  1  0.73051600  0.08683400  0.81633300  1
  C  149  1  0.70298600  0.05900200  0.83805000  1
  C  150  1  0.72922700  0.11207100  0.73516900  1
  C  151  1  0.82277500  0.15379300  0.76709000  1
  C  152  1  0.80120300  0.09996900  0.86659300  1
  C  157  1  0.76536200  0.25742500  0.16291400  1
  C  158  1  0.79155800  0.26058800  0.17906700  1
  C  159  1  0.79673500  0.28022100  0.18997500  1
  C  160  1  0.77356100  0.29729300  0.18540400  1
  C  161  1  0.74568400  0.29504500  0.17043100  1
  C  162  1  0.74281700  0.27540600  0.15915900  1
  C  166  1  0.76111100  0.23686000  0.15184500  1
  C  167  1  0.78544900  0.21954700  0.15453300  1
  C  168  1  0.78113200  0.19930500  0.14470600  1
  C  169  1  0.75233400  0.19617100  0.13065400  1
  C  170  1  0.72814500  0.21289200  0.12667700  1
  C  171  1  0.73251800  0.23265800  0.13750200  1
  C  175  1  0.70478300  0.21099600  0.10972600  1
  C  176  1  0.71668700  0.30887500  0.17105000  1
  C  177  1  0.82462800  0.28340600  0.20422200  1
  C  178  1  0.80233200  0.18234600  0.15107000  1
  C  183  1  0.76454800  0.73976300  0.93889300  1
  C  184  1  0.78750400  0.73770400  0.92086900  1
  C  185  1  0.79519400  0.71782300  0.91102900  1
  C  186  1  0.77716500  0.69946100  0.91827000  1
  C  187  1  0.75190200  0.70077000  0.93491000  1
  C  188  1  0.74686100  0.72062300  0.94545300  1
  C  192  1  0.75968500  0.76033900  0.94960300  1
  C  193  1  0.78438000  0.77747000  0.94712800  1
  C  194  1  0.77960700  0.79787000  0.95656000  1
  C  195  1  0.75052300  0.80099500  0.97043100  1
  C  196  1  0.72619600  0.78428400  0.97432200  1
  C  197  1  0.73051800  0.76452600  0.96346200  1
  C  201  1  0.70292200  0.78615600  0.99130700  1
  C  202  1  0.72970700  0.68344800  0.93849000  1
  C  203  1  0.82243200  0.71548100  0.89629500  1
  C  204  1  0.80116600  0.81480400  0.95041400  1
  C  209  1  0.76623200  0.88554900  0.79410900  1
  C  210  1  0.78889600  0.86741500  0.79214500  1
  C  211  1  0.79267500  0.85554500  0.77299900  1
  C  212  1  0.77074500  0.86068100  0.75551800  1
  C  213  1  0.74572100  0.87754500  0.75679800  1
  C  214  1  0.74484600  0.89003900  0.77578400  1
  C  218  1  0.76459300  0.89799200  0.81393300  1
  C  219  1  0.79073100  0.89594700  0.83034700  1
  C  220  1  0.78848000  0.90661700  0.85026900  1
  C  221  1  0.76079600  0.92144300  0.85345700  1
  C  222  1  0.73510300  0.92499500  0.83744500  1
  C  223  1  0.73681900  0.91285000  0.81829000  1
  C  227  1  0.71217400  0.94216400  0.83979500  1
  C  228  1  0.71701000  0.87813300  0.74273600  1
  C  229  1  0.81959000  0.84060900  0.77058900  1
  C  230  1  0.80945000  0.89992400  0.86726700  1
  C  235  1  0.76613900  0.11304700  0.30818800  1
  C  236  1  0.78856500  0.13130200  0.30995200  1
  C  237  1  0.79246500  0.14320500  0.32906600  1
  C  238  1  0.77086200  0.13800500  0.34667100  1
  C  239  1  0.74592000  0.12108300  0.34551400  1
  C  240  1  0.74505000  0.10847800  0.32661100  1
  C  244  1  0.76438900  0.10056200  0.28842600  1
  C  245  1  0.79071500  0.10234900  0.27210000  1
  C  246  1  0.78836300  0.09163000  0.25220600  1
  C  247  1  0.76038200  0.07700400  0.24901400  1
  C  248  1  0.73444300  0.07376500  0.26494400  1
  C  249  1  0.73625700  0.08597500  0.28404400  1
  C  253  1  0.71111600  0.05682200  0.26256300  1
  C  254  1  0.71732900  0.12048200  0.35967800  1
  C  255  1  0.81916600  0.15828800  0.33131900  1
  C  256  1  0.80938300  0.09819700  0.23519100  1
  C  261  1  0.76647600  0.25630300  0.93731700  1
  C  262  1  0.78929100  0.25825200  0.91925000  1
  C  263  1  0.79306700  0.27736900  0.90732700  1
  C  264  1  0.77105000  0.29483900  0.91235800  1
  C  265  1  0.74592200  0.29355800  0.92915400  1
  C  266  1  0.74496000  0.27460400  0.94168900  1
  C  270  1  0.76475500  0.23648600  0.94976500  1
  C  271  1  0.79091900  0.22007200  0.94782400  1
  C  272  1  0.78853300  0.20013600  0.95846700  1
  C  273  1  0.76064500  0.19693000  0.97314900  1
  C  274  1  0.73493100  0.21294800  0.97660200  1
  C  275  1  0.73678400  0.23210900  0.96447600  1
  C  279  1  0.71164300  0.21054300  0.99357300  1
  C  280  1  0.71716200  0.30755200  0.92950100  1
  C  281  1  0.81997700  0.27973500  0.89238000  1
  C  282  1  0.80938600  0.18313400  0.95169400  1
  C  287  1  0.76547300  0.74108200  0.16501400  1
  C  288  1  0.78542200  0.73998400  0.18435200  1
  C  289  1  0.79124300  0.72061500  0.19552800  1
  C  290  1  0.77394800  0.70196400  0.18840500  1
  C  291  1  0.75119100  0.70248400  0.17041600  1
  C  292  1  0.74830600  0.72175500  0.15853100  1
  C  296  1  0.76347900  0.76092000  0.15280000  1
  C  297  1  0.78954800  0.77732400  0.15502400  1
  C  298  1  0.78722000  0.79727300  0.14440200  1
  C  299  1  0.75953600  0.80040300  0.12954500  1
  C  300  1  0.73389400  0.78435100  0.12592700  1
  C  301  1  0.73567900  0.76512300  0.13796400  1
  C  305  1  0.71090400  0.78684900  0.10882500  1
  C  306  1  0.73020500  0.68476000  0.16603500  1
  C  307  1  0.81807000  0.71887200  0.21051900  1
  C  308  1  0.80844500  0.81423300  0.15091500  1
  C  313  1  0.07595000  0.11306200  0.79410800  1
  C  314  1  0.05328500  0.13119600  0.79214500  1
  C  315  1  0.04950800  0.14306400  0.77299900  1
  C  316  1  0.07143600  0.13792900  0.75551800  1
  C  317  1  0.09646200  0.12106500  0.75679800  1
  C  318  1  0.09733600  0.10857100  0.77578400  1
  C  322  1  0.07758900  0.10061700  0.81393100  1
  C  323  1  0.05145000  0.10266300  0.83034600  1
  C  324  1  0.05370200  0.09199100  0.85026900  1
  C  325  1  0.08138700  0.07716600  0.85345500  1
  C  326  1  0.10708100  0.07361400  0.83744300  1
  C  327  1  0.10536200  0.08576000  0.81829000  1
  C  331  1  0.13001100  0.05644600  0.83979400  1
  C  332  1  0.12517000  0.12047600  0.74273600  1
  C  333  1  0.02259000  0.15800200  0.77059100  1
  C  334  1  0.03273100  0.09868500  0.86726700  1
  C  339  1  0.07603600  0.88557800  0.30820100  1
  C  340  1  0.05360100  0.86732600  0.30996100  1
  C  341  1  0.04969100  0.85542200  0.32907600  1
  C  342  1  0.07129600  0.86061400  0.34668100  1
  C  343  1  0.09625100  0.87753200  0.34552700  1
  C  344  1  0.09712600  0.89013900  0.32662600  1
  C  348  1  0.07779300  0.89806600  0.28844400  1
  C  349  1  0.05145500  0.89629500  0.27212200  1
  C  350  1  0.05381000  0.90702000  0.25223100  1
  C  351  1  0.08180900  0.92163300  0.24903900  1
  C  352  1  0.10776400  0.92485100  0.26496200  1
  C  353  1  0.10594500  0.91263700  0.28406000  1
  C  357  1  0.13111000  0.94178400  0.26258100  1
  C  358  1  0.12484100  0.87812500  0.35969000  1
  C  359  1  0.02297800  0.84034700  0.33132500  1
  C  360  1  0.03277800  0.90046500  0.23521700  1
  C  365  1  0.07571500  0.74231200  0.93730300  1
  C  366  1  0.05289500  0.74036600  0.91923900  1
  C  367  1  0.04910800  0.72124700  0.90732000  1
  C  368  1  0.07111800  0.70377400  0.91235500  1
  C  369  1  0.09624400  0.70505200  0.92915100  1
  C  370  1  0.09721400  0.72400800  0.94168400  1
  C  374  1  0.07746200  0.76213300  0.94974100  1
  C  375  1  0.05128500  0.77854200  0.94782200  1
  C  376  1  0.05368900  0.79847600  0.95846900  1
  C  377  1  0.08160300  0.80168000  0.97313100  1
  C  378  1  0.10733500  0.78566700  0.97655800  1
  C  379  1  0.10547100  0.76651400  0.96442100  1
  C  383  1  0.13063500  0.78805400  0.99352900  1
  C  384  1  0.12500200  0.69105600  0.92949900  1
  C  385  1  0.02219300  0.71888200  0.89237900  1
  C  386  1  0.03282000  0.81547600  0.95171000  1
  C  391  1  0.07671300  0.25753000  0.16501600  1
  C  392  1  0.05676000  0.25862600  0.18435200  1
  C  393  1  0.05093500  0.27799600  0.19552800  1
  C  394  1  0.06823000  0.29664700  0.18840800  1
  C  395  1  0.09099200  0.29612800  0.17042000  1
  C  396  1  0.09387700  0.27685700  0.15853300  1
  C  400  1  0.07870800  0.23769200  0.15280000  1
  C  401  1  0.05263600  0.22128900  0.15502200  1
  C  402  1  0.05496300  0.20134200  0.14439700  1
  C  403  1  0.08264800  0.19821200  0.12954100  1
  C  404  1  0.10829500  0.21426200  0.12592700  1
  C  405  1  0.10650800  0.23348900  0.13796500  1
  C  409  1  0.13128600  0.21176400  0.10882600  1
  C  410  1  0.11197400  0.31385200  0.16603800  1
  C  411  1  0.02410300  0.27973500  0.21051900  1
  C  412  1  0.03373800  0.18438100  0.15090900  1
  C  417  1  0.57589400  0.61205200  0.80874800  1
  C  418  1  0.55376500  0.63048700  0.81039800  1
  C  419  1  0.54608800  0.64063300  0.83014300  1
  C  420  1  0.56356300  0.63332400  0.84870000  1
  C  421  1  0.58766500  0.61603700  0.84778500  1
  C  422  1  0.59246700  0.60518200  0.82810100  1
  C  426  1  0.58076800  0.60091400  0.78845100  1
  C  427  1  0.55604000  0.60304600  0.77132200  1
  C  428  1  0.56071500  0.59303800  0.75119400  1
  C  429  1  0.58976000  0.57905900  0.74838000  1
  C  430  1  0.61416600  0.57558400  0.76514200  1
  C  431  1  0.60993600  0.58695600  0.78461000  1
  C  435  1  0.63747700  0.55857100  0.76365200  1
  C  436  1  0.60798700  0.61112600  0.86559200  1
  C  437  1  0.51901900  0.65556500  0.83221300  1
  C  438  1  0.53931800  0.59890400  0.73410900  1
  C  443  1  0.57578000  0.38643400  0.29306900  1
  C  444  1  0.55372300  0.36795900  0.29150500  1
  C  445  1  0.54566700  0.35791600  0.27176400  1
  C  446  1  0.56262200  0.36540000  0.25309900  1
  C  447  1  0.58667300  0.38272600  0.25390800  1
  C  448  1  0.59193400  0.39343200  0.27363700  1
  C  452  1  0.58093500  0.39751300  0.31336300  1
  C  453  1  0.55627900  0.39543600  0.33053100  1
  C  454  1  0.56111000  0.40542500  0.35065500  1
  C  455  1  0.59029800  0.41930700  0.35342200  1
  C  456  1  0.61465700  0.42272500  0.33661500  1
  C  457  1  0.61023100  0.41139100  0.31713900  1
  C  461  1  0.63811400  0.43966400  0.33812600  1
  C  462  1  0.60682100  0.38768500  0.23602400  1
  C  463  1  0.51866100  0.34293000  0.26983600  1
  C  464  1  0.53965800  0.39965700  0.36774600  1
  C  469  1  0.57566000  0.24148000  0.66375900  1
  C  470  1  0.55372800  0.23986800  0.68228500  1
  C  471  1  0.54600100  0.22012500  0.69242100  1
  C  472  1  0.56324500  0.20152700  0.68500600  1
  C  473  1  0.58708900  0.20240400  0.66759200  1
  C  474  1  0.59194700  0.22209000  0.65675400  1
  C  478  1  0.58062400  0.26177200  0.65264500  1
  C  479  1  0.55600000  0.27894700  0.65483400  1
  C  480  1  0.56079500  0.29908500  0.64487100  1
  C  481  1  0.58987600  0.30188800  0.63092100  1
  C  482  1  0.61415000  0.28506800  0.62738500  1
  C  483  1  0.60981200  0.26557300  0.63869100  1
  C  487  1  0.63750900  0.28656600  0.61039300  1
  C  488  1  0.60716500  0.18455900  0.66251100  1
  C  489  1  0.51891900  0.21810600  0.70735300  1
  C  490  1  0.53961800  0.31618900  0.65091300  1
  C  495  1  0.57597800  0.75726000  0.43818900  1
  C  496  1  0.55384200  0.75886300  0.41975300  1
  C  497  1  0.54596100  0.77860500  0.40966700  1
  C  498  1  0.56309900  0.79723300  0.41708200  1
  C  499  1  0.58716600  0.79637900  0.43439200  1
  C  500  1  0.59230000  0.77666200  0.44513400  1
  C  504  1  0.58104300  0.73697100  0.44929300  1
  C  505  1  0.55632900  0.71982800  0.44723600  1
  C  506  1  0.56111000  0.69971300  0.45724600  1
  C  507  1  0.59027400  0.69692600  0.47114000  1
  C  508  1  0.61470200  0.71370000  0.47452500  1
  C  509  1  0.61034700  0.73316100  0.46315600  1
  C  513  1  0.63818000  0.71220600  0.49144800  1
  C  514  1  0.60739900  0.81421700  0.43934900  1
  C  515  1  0.51874600  0.78063400  0.39485000  1
  C  516  1  0.53960500  0.68263600  0.45151300  1
  C  521  1  0.26625200  0.38656800  0.80874100  1
  C  522  1  0.28842800  0.36815500  0.81041100  1
  C  523  1  0.29609200  0.35801700  0.83016300  1
  C  524  1  0.27858000  0.36532200  0.84870800  1
  C  525  1  0.25443900  0.38258800  0.84777500  1
  C  526  1  0.24963200  0.39342900  0.82808300  1
  C  530  1  0.26138600  0.39770100  0.78843900  1
  C  531  1  0.28611800  0.39556900  0.77131300  1
  C  532  1  0.28145700  0.40557700  0.75118400  1
  C  533  1  0.25241600  0.41955800  0.74836500  1
  C  534  1  0.22800000  0.42303100  0.76512300  1
  C  535  1  0.23221700  0.41165800  0.78459100  1
  C  539  1  0.20469700  0.44004900  0.76363100  1
  C  540  1  0.23410000  0.38749600  0.86557600  1
  C  541  1  0.32327700  0.34316200  0.83226100  1
  C  542  1  0.30285900  0.39971100  0.73410300  1
  C  547  1  0.26640600  0.61217500  0.29307400  1
  C  548  1  0.28845500  0.63065300  0.29150900  1
  C  549  1  0.29651600  0.64069400  0.27176900  1
  C  550  1  0.27956900  0.63320500  0.25310200  1
  C  551  1  0.25552600  0.61587500  0.25391100  1
  C  552  1  0.25026000  0.60517200  0.27364200  1
  C  556  1  0.26124900  0.60109700  0.31336700  1
  C  557  1  0.28590400  0.60317500  0.33053600  1
  C  558  1  0.28107200  0.59318400  0.35065800  1
  C  559  1  0.25188800  0.57930200  0.35342500  1
  C  560  1  0.22752800  0.57588600  0.33661800  1
  C  561  1  0.23195200  0.58721900  0.31714400  1
  C  565  1  0.20407000  0.55894700  0.33812900  1
  C  566  1  0.23539400  0.61090300  0.23602400  1
  C  567  1  0.32351800  0.65568100  0.26984100  1
  C  568  1  0.30252700  0.59895000  0.36774900  1
  C  573  1  0.26652200  0.75713000  0.66375900  1
  C  574  1  0.28845200  0.75874200  0.68228500  1
  C  575  1  0.29618200  0.77848600  0.69242100  1
  C  576  1  0.27893800  0.79708400  0.68500600  1
  C  577  1  0.25509600  0.79620600  0.66759000  1
  C  578  1  0.25023800  0.77652100  0.65675400  1
  C  582  1  0.26155900  0.73683800  0.65264500  1
  C  583  1  0.28617900  0.71966300  0.65483400  1
  C  584  1  0.28138800  0.69952400  0.64487100  1
  C  585  1  0.25230500  0.69672200  0.63092100  1
  C  586  1  0.22803100  0.71354300  0.62738500  1
  C  587  1  0.23237200  0.73303700  0.63869100  1
  C  591  1  0.20467200  0.71204400  0.61039300  1
  C  592  1  0.23502000  0.81405200  0.66251100  1
  C  593  1  0.32326400  0.78050400  0.70735400  1
  C  594  1  0.30256400  0.68242100  0.65091300  1
  C  599  1  0.26620900  0.24135500  0.43819200  1
  C  600  1  0.28834100  0.23975400  0.41975500  1
  C  601  1  0.29622700  0.22001200  0.40967000  1
  C  602  1  0.27909700  0.20138200  0.41709000  1
  C  603  1  0.25503900  0.20223400  0.43440400  1
  C  604  1  0.24990100  0.22195400  0.44514600  1
  C  608  1  0.26114600  0.26164600  0.44929600  1
  C  609  1  0.28585900  0.27878700  0.44723900  1
  C  610  1  0.28107500  0.29890200  0.45724900  1
  C  611  1  0.25191200  0.30168900  0.47114100  1
  C  612  1  0.22748500  0.28491500  0.47452500  1
  C  613  1  0.23183900  0.26545400  0.46315800  1
  C  617  1  0.20400600  0.28640900  0.49144900  1
  C  618  1  0.23482100  0.18439500  0.43937200  1
  C  619  1  0.32343600  0.21798300  0.39485000  1
  C  620  1  0.30258000  0.31597900  0.45151700  1
  C  625  1  0.26670300  0.38452400  0.29478700  1
  C  626  1  0.28542100  0.36473800  0.29392700  1
  C  627  1  0.29128400  0.35352600  0.27454500  1
  C  628  1  0.27490200  0.36104900  0.25569500  1
  C  629  1  0.25411500  0.37987500  0.25597600  1
  C  630  1  0.25137000  0.39173600  0.27523200  1
  C  634  1  0.26485700  0.39703200  0.31437500  1
  C  635  1  0.29096100  0.39493700  0.33072500  1
  C  636  1  0.28901100  0.40616600  0.35034700  1
  C  637  1  0.26160000  0.42127900  0.35319600  1
  C  638  1  0.23583200  0.42465600  0.33715400  1
  C  639  1  0.23728200  0.41211500  0.31824800  1
  C  643  1  0.21293800  0.44187100  0.33934700  1
  C  644  1  0.23734700  0.38675100  0.23751800  1
  C  645  1  0.31820400  0.33851000  0.27295300  1
  C  646  1  0.31001300  0.39980000  0.36743300  1
  C  651  1  0.26706300  0.61393500  0.80791000  1
  C  652  1  0.28573700  0.63374400  0.80857400  1
  C  653  1  0.29206900  0.64495600  0.82788800  1
  C  654  1  0.27629100  0.63736900  0.84688800  1
  C  655  1  0.25533500  0.61859300  0.84682900  1
  C  656  1  0.25199000  0.60677500  0.82757200  1
  C  660  1  0.26486500  0.60148400  0.78830900  1
  C  661  1  0.29088100  0.60349900  0.77189400  1
  C  662  1  0.28862400  0.59238400  0.75221900  1
  C  663  1  0.26093100  0.57745300  0.74938900  1
  C  664  1  0.23525300  0.57414000  0.76550200  1
  C  665  1  0.23705300  0.58656100  0.78447700  1
  C  669  1  0.21201100  0.55712300  0.76323200  1
  C  670  1  0.23763700  0.61243200  0.86526600  1
  C  671  1  0.31866600  0.66020200  0.82918900  1
  C  672  1  0.30960500  0.59871600  0.73510400  1
  C  677  1  0.26702900  0.75612400  0.43638100  1
  C  678  1  0.28557200  0.75678700  0.41652700  1
  C  679  1  0.29179300  0.77609500  0.40527700  1
  C  680  1  0.27604500  0.79509100  0.41289000  1
  C  681  1  0.25526600  0.79503800  0.43173500  1
  C  682  1  0.25202700  0.77579200  0.44358000  1
  C  686  1  0.26490500  0.73652700  0.44884400  1
  C  687  1  0.29087600  0.72009300  0.44675300  1
  C  688  1  0.28860600  0.70040000  0.45783300  1
  C  689  1  0.26096300  0.69754700  0.47278900  1
  C  690  1  0.23539600  0.71369800  0.47621600  1
  C  691  1  0.23716800  0.73269400  0.46381900  1
  C  695  1  0.21216700  0.71141000  0.49324100  1
  C  696  1  0.23782000  0.81350800  0.43803000  1
  C  697  1  0.31847700  0.77739700  0.39010000  1
  C  698  1  0.30944300  0.68329900  0.45134300  1
  C  703  1  0.26683000  0.24254900  0.66573900  1
  C  704  1  0.28561500  0.24180800  0.68550800  1
  C  705  1  0.29175600  0.22247800  0.69672700  1
  C  706  1  0.27581400  0.20352600  0.68915400  1
  C  707  1  0.25481100  0.20365700  0.67040100  1
  C  708  1  0.25158700  0.22292700  0.65859300  1
  C  712  1  0.26473500  0.26216200  0.65328600  1
  C  713  1  0.29077500  0.27855900  0.65534700  1
  C  714  1  0.28864000  0.29821900  0.64420000  1
  C  715  1  0.26109300  0.30105700  0.62918000  1
  C  716  1  0.23537800  0.28497600  0.62583500  1
  C  717  1  0.23702900  0.26601800  0.63829100  1
  C  721  1  0.21236200  0.28719900  0.60869200  1
  C  722  1  0.23706300  0.18525800  0.66419400  1
  C  723  1  0.31859100  0.22101500  0.71177500  1
  C  724  1  0.30978200  0.31528800  0.65045900  1
  C  729  1  0.57547700  0.61408600  0.29478900  1
  C  730  1  0.55675900  0.63387400  0.29392900  1
  C  731  1  0.55089800  0.64508600  0.27454500  1
  C  732  1  0.56728100  0.63756300  0.25569700  1
  C  733  1  0.58807000  0.61873700  0.25597700  1
  C  734  1  0.59081500  0.60687600  0.27523300  1
  C  738  1  0.57732600  0.60158000  0.31437500  1
  C  739  1  0.55122200  0.60367400  0.33072500  1
  C  740  1  0.55317100  0.59244500  0.35034700  1
  C  741  1  0.58058200  0.57733100  0.35319600  1
  C  742  1  0.60634900  0.57395400  0.33715400  1
  C  743  1  0.60490100  0.58649600  0.31824800  1
  C  747  1  0.62924400  0.55673900  0.33934700  1
  C  748  1  0.60484000  0.61186100  0.23751900  1
  C  749  1  0.52397800  0.66010100  0.27295300  1
  C  750  1  0.53216900  0.59881200  0.36743300  1
  C  755  1  0.57513000  0.38467000  0.80790500  1
  C  756  1  0.55647500  0.36485600  0.80856800  1
  C  757  1  0.55015100  0.35363900  0.82788000  1
  C  758  1  0.56592000  0.36123100  0.84688000  1
  C  759  1  0.58685600  0.38001500  0.84682400  1
  C  760  1  0.59019200  0.39183600  0.82756800  1
  C  764  1  0.57732000  0.39712500  0.78830800  1
  C  765  1  0.55130400  0.39510900  0.77189200  1
  C  766  1  0.55355600  0.40622700  0.75221900  1
  C  767  1  0.58124500  0.42115900  0.74938900  1
  C  768  1  0.60692400  0.42447300  0.76550000  1
  C  769  1  0.60512900  0.41204900  0.78447500  1
  C  773  1  0.63016400  0.44149300  0.76323000  1
  C  774  1  0.60453800  0.38618500  0.86526500  1
  C  775  1  0.52357200  0.33838300  0.82917900  1
  C  776  1  0.53257500  0.39989300  0.73510400  1
  C  781  1  0.57515600  0.24248600  0.43637900  1
  C  782  1  0.55661300  0.24182400  0.41652700  1
  C  783  1  0.55039200  0.22251500  0.40527500  1
  C  784  1  0.56614300  0.20351800  0.41288800  1
  C  785  1  0.58692200  0.20357200  0.43173200  1
  C  786  1  0.59016000  0.22281800  0.44357800  1
  C  790  1  0.57728000  0.26208400  0.44884200  1
  C  791  1  0.55130900  0.27851700  0.44675300  1
  C  792  1  0.55357900  0.29820900  0.45783100  1
  C  793  1  0.58121800  0.30106200  0.47278700  1
  C  794  1  0.60678600  0.28491100  0.47621400  1
  C  795  1  0.60501500  0.26591500  0.46381900  1
  C  799  1  0.63001500  0.28719900  0.49324100  1
  C  800  1  0.60436800  0.18510300  0.43802700  1
  C  801  1  0.52370500  0.22121200  0.39010000  1
  C  802  1  0.53274200  0.31531200  0.45134200  1
  C  807  1  0.57535300  0.75606200  0.66573900  1
  C  808  1  0.55656800  0.75680300  0.68550800  1
  C  809  1  0.55042600  0.77613200  0.69672700  1
  C  810  1  0.56636900  0.79508500  0.68915400  1
  C  811  1  0.58737300  0.79495200  0.67040100  1
  C  812  1  0.59059500  0.77568300  0.65859300  1
  C  816  1  0.57744800  0.73644800  0.65328600  1
  C  817  1  0.55140800  0.72005000  0.65534900  1
  C  818  1  0.55354200  0.70039000  0.64420200  1
  C  819  1  0.58108800  0.69755200  0.62918000  1
  C  820  1  0.60680500  0.71363200  0.62583500  1
  C  821  1  0.60515300  0.73259100  0.63829100  1
  C  825  1  0.62981900  0.71141200  0.60869200  1
  C  826  1  0.60511800  0.81335000  0.66419400  1
  C  827  1  0.52359100  0.77759500  0.71177300  1
  C  828  1  0.53240000  0.68332100  0.65046000  1
  C  833  1  0.13856400  0.02180000  0.27794000  1
  C  834  1  0.16558100  0.01019800  0.26727500  1
  C  835  1  0.16619300  0.98733500  0.26790300  1
  C  836  1  0.13896500  0.97635800  0.27929900  1
  C  837  1  0.11406100  0.98820300  0.29129400  1
  C  838  1  0.11381200  0.01062000  0.29058100  1
  C  840  1  0.21873000  0.98780000  0.24620500  1
  C  841  1  0.21826300  0.01046500  0.24562900  1
  C  847  1  0.24370100  0.02261100  0.23496200  1
  C  853  1  0.13854900  0.97638500  0.82412700  1
  C  854  1  0.16542300  0.98811500  0.83480600  1
  C  855  1  0.16559100  0.01099500  0.83434800  1
  C  856  1  0.13802100  0.02187500  0.82315300  1
  C  857  1  0.11328300  0.00993300  0.81113300  1
  C  858  1  0.11347400  0.98750800  0.81166900  1
  C  860  1  0.21833900  0.01075000  0.85586600  1
  C  861  1  0.21824200  0.98808300  0.85634100  1
  C  867  1  0.24387500  0.97604500  0.86696100  1
  C  873  1  0.13852800  0.77235400  0.07343900  1
  C  874  1  0.16549900  0.78308200  0.06185700  1
  C  875  1  0.16604100  0.78254700  0.03899100  1
  C  876  1  0.13880000  0.77117600  0.02799900  1
  C  877  1  0.11397400  0.75910000  0.03982000  1
  C  878  1  0.11378300  0.75972900  0.06223900  1
  C  880  1  0.21856100  0.80425700  0.03948400  1
  C  881  1  0.21816000  0.80474600  0.06215200  1
  C  887  1  0.24362900  0.81537500  0.07431000  1
  C  893  1  0.13842700  0.22627600  0.02815200  1
  C  894  1  0.16535900  0.21566800  0.03989100  1
  C  895  1  0.16569400  0.21627400  0.06277400  1
  C  896  1  0.13820900  0.22755800  0.07366500  1
  C  897  1  0.11332800  0.23943500  0.06168500  1
  C  898  1  0.11336800  0.23875300  0.03926100  1
  C  900  1  0.21842900  0.19472300  0.06248900  1
  C  901  1  0.21816700  0.19411400  0.03982600  1
  C  907  1  0.24371400  0.18343300  0.02777300  1
  C  913  1  0.70364300  0.97680700  0.27793800  1
  C  914  1  0.67662700  0.98841000  0.26727400  1
  C  915  1  0.67602300  0.01127300  0.26789500  1
  C  916  1  0.70325600  0.02225100  0.27928600  1
  C  917  1  0.72815800  0.01040600  0.29128200  1
  C  918  1  0.72840200  0.98798800  0.29057300  1
  C  920  1  0.62347900  0.01080900  0.24620200  1
  C  921  1  0.62394000  0.98814500  0.24563100  1
  C  927  1  0.59849700  0.97599800  0.23496700  1
  C  933  1  0.70363300  0.02222500  0.82412500  1
  C  934  1  0.67676000  0.01049600  0.83480400  1
  C  935  1  0.67659300  0.98761600  0.83434800  1
  C  936  1  0.70416300  0.97673500  0.82315300  1
  C  937  1  0.72890100  0.98867600  0.81113300  1
  C  938  1  0.72870700  0.01110200  0.81166900  1
  C  940  1  0.62384500  0.98786000  0.85586600  1
  C  941  1  0.62394000  0.01052800  0.85634100  1
  C  947  1  0.59830600  0.02256500  0.86696100  1
  C  953  1  0.70363000  0.22612300  0.07355000  1
  C  954  1  0.67667500  0.21543200  0.06191900  1
  C  955  1  0.67622400  0.21598000  0.03905200  1
  C  956  1  0.70355800  0.22731400  0.02810400  1
  C  957  1  0.72841300  0.23932400  0.03997000  1
  C  958  1  0.72849800  0.23869400  0.06239000  1
  C  960  1  0.62361700  0.19434400  0.03946000  1
  C  961  1  0.62394600  0.19382700  0.06212800  1
  C  967  1  0.59843100  0.18319400  0.07424600  1
  C  973  1  0.70375700  0.77233300  0.02815200  1
  C  974  1  0.67682600  0.78294300  0.03989100  1
  C  975  1  0.67649200  0.78233600  0.06277400  1
  C  976  1  0.70397700  0.77105400  0.07366500  1
  C  977  1  0.72885800  0.75917600  0.06168500  1
  C  978  1  0.72881600  0.75985600  0.03926200  1
  C  980  1  0.62375700  0.80388800  0.06248800  1
  C  981  1  0.62401700  0.80449400  0.03982600  1
  C  987  1  0.59847000  0.81517500  0.02777300  1
  C  993  1  0.63737700  0.52198200  0.77809400  1
  C  994  1  0.66437400  0.51026400  0.76751800  1
  C  995  1  0.66484000  0.48738200  0.76816300  1
  C  996  1  0.63743500  0.47643400  0.77946500  1
  C  997  1  0.61245600  0.48839100  0.79129700  1
  C  998  1  0.61236800  0.51082100  0.79057200  1
  C  1000  1  0.71758300  0.48774000  0.74661700  1
  C  1001  1  0.71720400  0.51040200  0.74598000  1
  C  1007  1  0.74270800  0.52249400  0.73530100  1
  C  1013  1  0.63731000  0.47642900  0.32408500  1
  C  1014  1  0.66427300  0.48820100  0.33464100  1
  C  1015  1  0.66447700  0.51108900  0.33410600  1
  C  1016  1  0.63684600  0.52197700  0.32294700  1
  C  1017  1  0.61202100  0.50997700  0.31104400  1
  C  1018  1  0.61217500  0.48754600  0.31166400  1
  C  1020  1  0.71736800  0.51084900  0.35551700  1
  C  1021  1  0.71723600  0.48818300  0.35606300  1
  C  1027  1  0.74288600  0.47614700  0.36667600  1
  C  1033  1  0.63733400  0.27224100  0.57374100  1
  C  1034  1  0.66431300  0.28284100  0.56202700  1
  C  1035  1  0.66474200  0.28223900  0.53914100  1
  C  1036  1  0.63732300  0.27095600  0.52818600  1
  C  1037  1  0.61236500  0.25910100  0.54013900  1
  C  1038  1  0.61230700  0.25978600  0.56257000  1
  C  1040  1  0.71748500  0.30378400  0.53951200  1
  C  1041  1  0.71714300  0.30437700  0.56217500  1
  C  1047  1  0.74267100  0.31503300  0.57427000  1
  C  1053  1  0.63738400  0.72628100  0.52820200  1
  C  1054  1  0.66437400  0.71575200  0.53997200  1
  C  1055  1  0.66465700  0.71635800  0.56286000  1
  C  1056  1  0.63706600  0.72755800  0.57374700  1
  C  1057  1  0.61219000  0.73941100  0.56173700  1
  C  1058  1  0.61227500  0.73873000  0.53930800  1
  C  1060  1  0.71752500  0.69492100  0.56261000  1
  C  1061  1  0.71730700  0.69430500  0.53994600  1
  C  1067  1  0.74290200  0.68364700  0.52790600  1
  C  1073  1  0.20479400  0.47663300  0.77808800  1
  C  1074  1  0.17779700  0.48835100  0.76751200  1
  C  1075  1  0.17733300  0.51123500  0.76816000  1
  C  1076  1  0.20473800  0.52218000  0.77946300  1
  C  1077  1  0.22971700  0.51022100  0.79129200  1
  C  1078  1  0.22980500  0.48779100  0.79056500  1
  C  1080  1  0.12458900  0.51087700  0.74661500  1
  C  1081  1  0.12496500  0.48821500  0.74597700  1
  C  1087  1  0.09946100  0.47612400  0.73529600  1
  C  1093  1  0.20487300  0.52218100  0.32408600  1
  C  1094  1  0.17791000  0.51041100  0.33464100  1
  C  1095  1  0.17770500  0.48752200  0.33410600  1
  C  1096  1  0.20533600  0.47663300  0.32294700  1
  C  1097  1  0.23016100  0.48863400  0.31104400  1
  C  1098  1  0.23000800  0.51106600  0.31166400  1
  C  1100  1  0.12481400  0.48776100  0.35551700  1
  C  1101  1  0.12494700  0.51042800  0.35606300  1
  C  1107  1  0.09929600  0.52246400  0.36667600  1
  C  1113  1  0.20484700  0.72636900  0.57374100  1
  C  1114  1  0.17787000  0.71576900  0.56202700  1
  C  1115  1  0.17744100  0.71637100  0.53914300  1
  C  1116  1  0.20486000  0.72765500  0.52818600  1
  C  1117  1  0.22981800  0.73950900  0.54013900  1
  C  1118  1  0.22987400  0.73882400  0.56257000  1
  C  1120  1  0.12469700  0.69482600  0.53951200  1
  C  1121  1  0.12503800  0.69423400  0.56217500  1
  C  1127  1  0.09951200  0.68357800  0.57427000  1
  C  1133  1  0.20479800  0.27233100  0.52820200  1
  C  1134  1  0.17780900  0.28286000  0.53997200  1
  C  1135  1  0.17752400  0.28225200  0.56286000  1
  C  1136  1  0.20511400  0.27105200  0.57374700  1
  C  1137  1  0.22999200  0.25919900  0.56173700  1
  C  1138  1  0.22990700  0.25988200  0.53930800  1
  C  1140  1  0.12465700  0.30369000  0.56261100  1
  C  1141  1  0.12487500  0.30430600  0.53994800  1
  C  1147  1  0.09928100  0.31496500  0.52790600  1
  C  1153  1  0.14870000  0.13659900  0.39036100  1
  C  1154  1  0.15917200  0.13000100  0.41108600  1
  C  1155  1  0.18344700  0.14253900  0.42334500  1
  C  1156  1  0.19647300  0.16202400  0.41452100  1
  C  1157  1  0.18606400  0.16837400  0.39378500  1
  C  1158  1  0.16209400  0.15599800  0.38200200  1
  C  1160  1  0.17991100  0.11647500  0.45151700  1
  C  1161  1  0.15602900  0.10389500  0.43933300  1
  C  1167  1  0.14130300  0.08474900  0.44665400  1
  C  1173  1  0.15138700  0.86069500  0.71476000  1
  C  1174  1  0.16102000  0.86822800  0.69415500  1
  C  1175  1  0.18344800  0.85570300  0.68064000  1
  C  1176  1  0.19599300  0.83559500  0.68818500  1
  C  1177  1  0.18621900  0.82830300  0.70872500  1
  C  1178  1  0.16383500  0.84058800  0.72173600  1
  C  1180  1  0.17873400  0.88268000  0.65343500  1
  C  1181  1  0.15634400  0.89515400  0.66666667  1
  C  1187  1  0.14091100  0.91437100  0.66020000  1
  C  1193  1  0.14880200  0.65991000  0.18855500  1
  C  1194  1  0.15929900  0.63920200  0.18188600  1
  C  1195  1  0.18370000  0.62694800  0.19434600  1
  C  1196  1  0.19685900  0.63575100  0.21380700  1
  C  1197  1  0.18641700  0.65645400  0.22023200  1
  C  1198  1  0.16229600  0.66821700  0.20795700  1
  C  1200  1  0.18012100  0.59880600  0.16825800  1
  C  1201  1  0.15614500  0.61098100  0.15573400  1
  C  1207  1  0.14136700  0.60365800  0.13660100  1
  C  1213  1  0.15174400  0.33509900  0.91272500  1
  C  1214  1  0.16150700  0.35569400  0.92019000  1
  C  1215  1  0.18367400  0.36922000  0.90751700  1
  C  1216  1  0.19586900  0.36165900  0.88733100  1
  C  1217  1  0.18610800  0.34107000  0.88016000  1
  C  1218  1  0.16394100  0.32806200  0.89258900  1
  C  1220  1  0.17943900  0.39637600  0.93458600  1
  C  1221  1  0.15737200  0.38305300  0.94722700  1
  C  1227  1  0.14230800  0.38942400  0.96660300  1
  C  1233  1  0.69354500  0.86201300  0.39036300  1
  C  1234  1  0.68305000  0.86861000  0.41108500  1
  C  1235  1  0.65876000  0.85607200  0.42333400  1
  C  1236  1  0.64574300  0.83658700  0.41450400  1
  C  1237  1  0.65616900  0.83024100  0.39376900  1
  C  1238  1  0.68015400  0.84261600  0.38199600  1
  C  1240  1  0.66227100  0.88213500  0.45150700  1
  C  1241  1  0.68616600  0.89471600  0.43933100  1
  C  1247  1  0.70088800  0.91386100  0.44665700  1
  C  1253  1  0.69079600  0.13791400  0.71476300  1
  C  1254  1  0.68116200  0.13038100  0.69415700  1
  C  1255  1  0.65873400  0.14290700  0.68064200  1
  C  1256  1  0.64619100  0.16301500  0.68818900  1
  C  1257  1  0.65596200  0.17030700  0.70872800  1
  C  1258  1  0.67834800  0.15802100  0.72173800  1
  C  1260  1  0.66344800  0.11593000  0.65343600  1
  C  1261  1  0.68583700  0.10345500  0.66666667  1
  C  1267  1  0.70127000  0.08423800  0.66020400  1
  C  1273  1  0.69346600  0.33871500  0.18856000  1
  C  1274  1  0.68293600  0.35941600  0.18189100  1
  C  1275  1  0.65851100  0.37165600  0.19435000  1
  C  1276  1  0.64536400  0.36284500  0.21381000  1
  C  1277  1  0.65583300  0.34214700  0.22023000  1
  C  1278  1  0.67997400  0.33039500  0.20795700  1
  C  1280  1  0.66205300  0.39980000  0.16826000  1
  C  1281  1  0.68604900  0.38763700  0.15573700  1
  C  1287  1  0.70082200  0.39496600  0.13660400  1
  C  1293  1  0.69041100  0.66351300  0.91271600  1
  C  1294  1  0.68064200  0.64292000  0.92018600  1
  C  1295  1  0.65846600  0.62939500  0.90751700  1
  C  1296  1  0.64626200  0.63695500  0.88733300  1
  C  1297  1  0.65603400  0.65754000  0.88015600  1
  C  1298  1  0.67821000  0.67054700  0.89257900  1
  C  1300  1  0.66270000  0.60224200  0.93459000  1
  C  1301  1  0.68477600  0.61556500  0.94722700  1
  C  1307  1  0.69984300  0.60919600  0.96660300  1
  C  1313  1  0.69370400  0.86094100  0.71271100  1
  C  1314  1  0.68319300  0.86791500  0.69208700  1
  C  1315  1  0.65871000  0.85564700  0.67971000  1
  C  1316  1  0.64543200  0.83612500  0.68825100  1
  C  1317  1  0.65593100  0.82932000  0.70880600  1
  C  1318  1  0.68011400  0.84142400  0.72073200  1
  C  1320  1  0.66258400  0.88184100  0.65171000  1
  C  1321  1  0.68660300  0.89424300  0.66399500  1
  C  1327  1  0.70173400  0.91332700  0.65677500  1
  C  1333  1  0.69371500  0.13815500  0.38935700  1
  C  1334  1  0.68305200  0.13086700  0.40982500  1
  C  1335  1  0.65836200  0.14289200  0.42227100  1
  C  1336  1  0.64495800  0.16246000  0.41390500  1
  C  1337  1  0.65544800  0.16950700  0.39342400  1
  C  1338  1  0.67985500  0.15762600  0.38142500  1
  C  1340  1  0.66242200  0.11638900  0.44997600  1
  C  1341  1  0.68662400  0.10420300  0.43759200  1
  C  1347  1  0.70214500  0.08511400  0.44454100  1
  C  1353  1  0.69347600  0.33764600  0.91258100  1
  C  1354  1  0.68299100  0.35826400  0.91959400  1
  C  1355  1  0.65840500  0.37063700  0.90739200  1
  C  1356  1  0.64499000  0.36210000  0.88790200  1
  C  1357  1  0.65545900  0.34155300  0.88106300  1
  C  1358  1  0.67974800  0.32963700  0.89309100  1
  C  1360  1  0.66240900  0.39863200  0.93358200  1
  C  1361  1  0.68651600  0.38635300  0.94592900  1
  C  1367  1  0.70175500  0.39356800  0.96498800  1
  C  1373  1  0.68960000  0.66397100  0.19058800  1
  C  1374  1  0.68023100  0.64353600  0.18249100  1
  C  1375  1  0.65775500  0.62972100  0.19460400  1
  C  1376  1  0.64475900  0.63676700  0.21476300  1
  C  1377  1  0.65408500  0.65714700  0.22263200  1
  C  1378  1  0.67658500  0.67050000  0.21074200  1
  C  1380  1  0.66317500  0.60296400  0.16725300  1
  C  1381  1  0.68543900  0.61658400  0.15505400  1
  C  1387  1  0.70110000  0.61058700  0.13572600  1
  C  1393  1  0.14847600  0.13767000  0.71271100  1
  C  1394  1  0.15898800  0.13069400  0.69208700  1
  C  1395  1  0.18347200  0.14296300  0.67971000  1
  C  1396  1  0.19674900  0.16248600  0.68825100  1
  C  1397  1  0.18625200  0.16929000  0.70880600  1
  C  1398  1  0.16206800  0.15718800  0.72073200  1
  C  1400  1  0.17959800  0.11676900  0.65171000  1
  C  1401  1  0.15557900  0.10436700  0.66399500  1
  C  1407  1  0.14044900  0.08528300  0.65677300  1
  C  1413  1  0.14845100  0.86044700  0.38936600  1
  C  1414  1  0.15912400  0.86773700  0.40983200  1
  C  1415  1  0.18381800  0.85571400  0.42227500  1
  C  1416  1  0.19721900  0.83614500  0.41391200  1
  C  1417  1  0.18671900  0.82909600  0.39343200  1
  C  1418  1  0.16230700  0.84097500  0.38143400  1
  C  1420  1  0.17977100  0.88222100  0.44998000  1
  C  1421  1  0.15556200  0.89440700  0.43759500  1
  C  1427  1  0.14004200  0.91349700  0.44454200  1
  C  1433  1  0.14869500  0.66096900  0.91257600  1
  C  1434  1  0.15918600  0.64035000  0.91958900  1
  C  1435  1  0.18377800  0.62798000  0.90738700  1
  C  1436  1  0.19719300  0.63652100  0.88789900  1
  C  1437  1  0.18672200  0.65706900  0.88106100  1
  C  1438  1  0.16242600  0.66898100  0.89309100  1
  C  1440  1  0.17977700  0.59998500  0.93357700  1
  C  1441  1  0.15566600  0.61226200  0.94592400  1
  C  1447  1  0.14042900  0.60504400  0.96498100  1
  C  1453  1  0.15258200  0.33464100  0.19058800  1
  C  1454  1  0.16195100  0.35507600  0.18249100  1
  C  1455  1  0.18443000  0.36889100  0.19460400  1
  C  1456  1  0.19742700  0.36184700  0.21476100  1
  C  1457  1  0.18810000  0.34146500  0.22263200  1
  C  1458  1  0.16560100  0.32811200  0.21074400  1
  C  1460  1  0.17900700  0.39564900  0.16725300  1
  C  1461  1  0.15674200  0.38202800  0.15505500  1
  C  1467  1  0.14108000  0.38802500  0.13572700  1
  C  1473  1  0.04850200  0.11770600  0.20003800  1
  C  1474  1  0.07600000  0.11943000  0.18478500  1
  C  1475  1  0.07472800  0.13505800  0.16826800  1
  C  1476  1  0.04559500  0.14944800  0.16750600  1
  C  1477  1  0.01729700  0.14708800  0.18218900  1
  C  1478  1  0.01868200  0.13128400  0.19828400  1
  C  1480  1  0.13185000  0.12309600  0.15604700  1
  C  1481  1  0.13379100  0.10796700  0.17291300  1
  C  1487  1  0.16200600  0.09386100  0.17611000  1
  C  1493  1  0.04891700  0.88114000  0.90121500  1
  C  1494  1  0.07616900  0.87953400  0.91666200  1
  C  1495  1  0.07444400  0.86419000  0.93343800  1
  C  1496  1  0.04504500  0.85000700  0.93436000  1
  C  1497  1  0.01706000  0.85222400  0.91944900  1
  C  1498  1  0.01892800  0.86770300  0.90305600  1
  C  1500  1  0.13161300  0.87598500  0.94573500  1
  C  1501  1  0.13394100  0.89089500  0.92869400  1
  C  1507  1  0.16228500  0.90490600  0.92550900  1
  C  1513  1  0.04848000  0.85044500  0.16926600  1
  C  1514  1  0.07597900  0.86569500  0.17098600  1
  C  1515  1  0.07452900  0.88233700  0.18646300  1
  C  1516  1  0.04514800  0.88326100  0.20065400  1
  C  1517  1  0.01688200  0.86855700  0.19832100  1
  C  1518  1  0.01849000  0.85230500  0.18269300  1
  C  1520  1  0.13187000  0.89439200  0.17471300  1
  C  1521  1  0.13394200  0.87743500  0.15968600  1
  C  1527  1  0.16221800  0.87412600  0.14564300  1
  C  1533  1  0.04903500  0.14925600  0.93282000  1
  C  1534  1  0.07625900  0.13379100  0.93123800  1
  C  1535  1  0.07449800  0.11699400  0.91592000  1
  C  1536  1  0.04510700  0.11608300  0.90172900  1
  C  1537  1  0.01716900  0.13103200  0.90390800  1
  C  1538  1  0.01906400  0.14744000  0.91936700  1
  C  1540  1  0.13160100  0.10463900  0.92777100  1
  C  1541  1  0.13396900  0.12170500  0.94264800  1
  C  1547  1  0.16231700  0.12486800  0.95665900  1
  C  1553  1  0.79368200  0.88090600  0.20005200  1
  C  1554  1  0.76618400  0.87918300  0.18479800  1
  C  1555  1  0.76745700  0.86355600  0.16827900  1
  C  1556  1  0.79658900  0.84916300  0.16751700  1
  C  1557  1  0.82488500  0.85152300  0.18220000  1
  C  1558  1  0.82350100  0.86732600  0.19829700  1
  C  1560  1  0.71033600  0.87551800  0.15605700  1
  C  1561  1  0.70839500  0.89064700  0.17292400  1
  C  1567  1  0.68018100  0.90475300  0.17612000  1
  C  1573  1  0.79326300  0.11746900  0.90121100  1
  C  1574  1  0.76601400  0.11907700  0.91665800  1
  C  1575  1  0.76774300  0.13442300  0.93343100  1
  C  1576  1  0.79714300  0.14860600  0.93435200  1
  C  1577  1  0.82512700  0.14638500  0.91944100  1
  C  1578  1  0.82325400  0.13090500  0.90304800  1
  C  1580  1  0.71057500  0.12263000  0.94573400  1
  C  1581  1  0.70824400  0.10771800  0.92869400  1
  C  1587  1  0.67990000  0.09370700  0.92551200  1
  C  1593  1  0.79367200  0.14822000  0.16923700  1
  C  1594  1  0.76617600  0.13296900  0.17095900  1
  C  1595  1  0.76762900  0.11632800  0.18643900  1
  C  1596  1  0.79700500  0.11541000  0.20063300  1
  C  1597  1  0.82526400  0.13011800  0.19830400  1
  C  1598  1  0.82365800  0.14636800  0.18267100  1
  C  1600  1  0.71030200  0.10425600  0.17468200  1
  C  1601  1  0.70822500  0.12121100  0.15965500  1
  C  1607  1  0.67994200  0.12450700  0.14561400  1
  C  1613  1  0.79314400  0.84934900  0.93281800  1
  C  1614  1  0.76592200  0.86481700  0.93123800  1
  C  1615  1  0.76768200  0.88161500  0.91592100  1
  C  1616  1  0.79707400  0.88252500  0.90172900  1
  C  1617  1  0.82501000  0.86757500  0.90390800  1
  C  1618  1  0.82311700  0.85116600  0.91936600  1
  C  1620  1  0.71058300  0.89397000  0.92777300  1
  C  1621  1  0.70821200  0.87690400  0.94265000  1
  C  1627  1  0.67986500  0.87374200  0.95665900  1
  C  1633  1  0.54809000  0.61691400  0.69985200  1
  C  1634  1  0.57579300  0.61891200  0.68476000  1
  C  1635  1  0.57439000  0.63448400  0.66821300  1
  C  1636  1  0.54482100  0.64852200  0.66719100  1
  C  1637  1  0.51631200  0.64588300  0.68167300  1
  C  1638  1  0.51789500  0.63015500  0.69783700  1
  C  1640  1  0.63224500  0.62324200  0.65652300  1
  C  1641  1  0.63433800  0.60807900  0.67339300  1
  C  1647  1  0.66256800  0.59403600  0.67717600  1
  C  1653  1  0.54810100  0.38187100  0.40214900  1
  C  1654  1  0.57579300  0.37986200  0.41724900  1
  C  1655  1  0.57439000  0.36427100  0.43377400  1
  C  1656  1  0.54482100  0.35022000  0.43480100  1
  C  1657  1  0.51639400  0.35283300  0.42025900  1
  C  1658  1  0.51797700  0.36856300  0.40409900  1
  C  1660  1  0.63240500  0.37537500  0.44535400  1
  C  1661  1  0.63449100  0.39060500  0.42852900  1
  C  1667  1  0.66275100  0.40458100  0.42445900  1
  C  1673  1  0.54814300  0.35060500  0.66864600  1
  C  1674  1  0.57580600  0.36572600  0.67061800  1
  C  1675  1  0.57442200  0.38225900  0.68619600  1
  C  1676  1  0.54486800  0.38327100  0.70024700  1
  C  1677  1  0.51636200  0.36878900  0.69761600  1
  C  1678  1  0.51795600  0.35261200  0.68190000  1
  C  1680  1  0.63244400  0.39381200  0.67509400  1
  C  1681  1  0.63451000  0.37698400  0.65986200  1
  C  1687  1  0.66277700  0.37286200  0.64590400  1
  C  1693  1  0.54798400  0.64819500  0.43379300  1
  C  1694  1  0.57568400  0.63310100  0.43175700  1
  C  1695  1  0.57419700  0.61653700  0.41621200  1
  C  1696  1  0.54451800  0.61545600  0.40225100  1
  C  1697  1  0.51609700  0.62999700  0.40488700  1
  C  1698  1  0.51777800  0.64620400  0.42056200  1
  C  1700  1  0.63232200  0.60502800  0.42718600  1
  C  1701  1  0.63447300  0.62187400  0.44239100  1
  C  1707  1  0.66281200  0.62601900  0.45629000  1
  C  1713  1  0.29409200  0.38169900  0.69984600  1
  C  1714  1  0.26639000  0.37970000  0.68475500  1
  C  1715  1  0.26779200  0.36412700  0.66820800  1
  C  1716  1  0.29736200  0.35008800  0.66718700  1
  C  1717  1  0.32587000  0.35272700  0.68166800  1
  C  1718  1  0.32428700  0.36845800  0.69783300  1
  C  1720  1  0.20993400  0.37536500  0.65652000  1
  C  1721  1  0.20784200  0.39053100  0.67338800  1
  C  1727  1  0.17961200  0.40457100  0.67717300  1
  C  1733  1  0.29408400  0.61673800  0.40215000  1
  C  1734  1  0.26639000  0.61874800  0.41725000  1
  C  1735  1  0.26779200  0.63434000  0.43377500  1
  C  1736  1  0.29736200  0.64839100  0.43480200  1
  C  1737  1  0.32578800  0.64577700  0.42026000  1
  C  1738  1  0.32420500  0.63004600  0.40410100  1
  C  1740  1  0.20977700  0.62323700  0.44535400  1
  C  1741  1  0.20769100  0.60800500  0.42852900  1
  C  1747  1  0.17943100  0.59403000  0.42445900  1
  C  1753  1  0.29403900  0.64800400  0.66864600  1
  C  1754  1  0.26637600  0.63288300  0.67061600  1
  C  1755  1  0.26776100  0.61635100  0.68619600  1
  C  1756  1  0.29731100  0.61533900  0.70024900  1
  C  1757  1  0.32582000  0.62982200  0.69761600  1
  C  1758  1  0.32422400  0.64599900  0.68190000  1
  C  1760  1  0.20973700  0.60480000  0.67509500  1
  C  1761  1  0.20767000  0.62162600  0.65986200  1
  C  1767  1  0.17940400  0.62575000  0.64590400  1
  C  1773  1  0.29420100  0.35042000  0.43379500  1
  C  1774  1  0.26650100  0.36551300  0.43175900  1
  C  1775  1  0.26798600  0.38207600  0.41621200  1
  C  1776  1  0.29766700  0.38315600  0.40225100  1
  C  1777  1  0.32608800  0.36861700  0.40488900  1
  C  1778  1  0.32440700  0.35241000  0.42056500  1
  C  1780  1  0.20985800  0.39358300  0.42718200  1
  C  1781  1  0.20770900  0.37673800  0.44239100  1
  C  1787  1  0.17936800  0.37258600  0.45628600  1
  C  1793  1  0.95735800  0.15784900  0.32759000  1
  C  1794  1  0.93847700  0.15403300  0.34683500  1
  C  1795  1  0.90087800  0.15476600  0.34732600  1
  C  1796  1  0.88230000  0.15964000  0.32810700  1
  C  1797  1  0.90125200  0.16393500  0.30907600  1
  C  1798  1  0.93843200  0.16295800  0.30880800  1
  C  1800  1  0.90233200  0.14186500  0.38369200  1
  C  1801  1  0.93981900  0.14104700  0.38332400  1
  C  1807  1  0.96134800  0.13333700  0.39984100  1
  C  1813  1  0.95792500  0.84091200  0.77456500  1
  C  1814  1  0.93902600  0.84476100  0.75532700  1
  C  1815  1  0.90140900  0.84402400  0.75485700  1
  C  1816  1  0.88279600  0.83923900  0.77410400  1
  C  1817  1  0.90182800  0.83496800  0.79311100  1
  C  1818  1  0.93902100  0.83588200  0.79336500  1
  C  1820  1  0.90282200  0.85676000  0.71842800  1
  C  1821  1  0.94031500  0.85759300  0.71877100  1
  C  1827  1  0.96185500  0.86522300  0.70221600  1
  C  1833  1  0.95637100  0.72286600  0.20934000  1
  C  1834  1  0.93758400  0.70356200  0.20567400  1
  C  1835  1  0.89999300  0.70297300  0.20646000  1
  C  1836  1  0.88126600  0.72216300  0.21127300  1
  C  1837  1  0.90011700  0.74128100  0.21535300  1
  C  1838  1  0.93730800  0.74163800  0.21431000  1
  C  1840  1  0.90172700  0.66651700  0.19379500  1
  C  1841  1  0.93921700  0.66697900  0.19292900  1
  C  1847  1  0.96103300  0.65050700  0.18538200  1
  C  1853  1  0.95825400  0.27577200  0.89231600  1
  C  1854  1  0.93938400  0.29500200  0.89626400  1
  C  1855  1  0.90175900  0.29545800  0.89566100  1
  C  1856  1  0.88312500  0.27620900  0.89090700  1
  C  1857  1  0.90212500  0.25721600  0.88653700  1
  C  1858  1  0.93932300  0.25697200  0.88732500  1
  C  1860  1  0.90323800  0.33184200  0.90851500  1
  C  1861  1  0.94073100  0.33150600  0.90922100  1
  C  1867  1  0.96222600  0.34805600  0.91688700  1
  C  1873  1  0.88478800  0.84076100  0.32757300  1
  C  1874  1  0.90365200  0.84458900  0.34681900  1
  C  1875  1  0.94125400  0.84387200  0.34731600  1
  C  1876  1  0.95984500  0.83900600  0.32809900  1
  C  1877  1  0.94090600  0.83470600  0.30906400  1
  C  1878  1  0.90372400  0.83566400  0.30879200  1
  C  1880  1  0.93977100  0.85675800  0.38368700  1
  C  1881  1  0.90228100  0.85756200  0.38331500  1
  C  1887  1  0.88071700  0.86524200  0.39983200  1
  C  1893  1  0.88425500  0.15770000  0.77456500  1
  C  1894  1  0.90315400  0.15385000  0.75532700  1
  C  1895  1  0.94077400  0.15458600  0.75485700  1
  C  1896  1  0.95938600  0.15937200  0.77410600  1
  C  1897  1  0.94035500  0.16364100  0.79311100  1
  C  1898  1  0.90316200  0.16273000  0.79336500  1
  C  1900  1  0.93935800  0.14185100  0.71842800  1
  C  1901  1  0.90186500  0.14101800  0.71877300  1
  C  1907  1  0.88032800  0.13338800  0.70221700  1
  C  1913  1  0.88579800  0.27571300  0.20933000  1
  C  1914  1  0.90457800  0.29502000  0.20566900  1
  C  1915  1  0.94217100  0.29561500  0.20646000  1
  C  1916  1  0.96090600  0.27642800  0.21127000  1
  C  1917  1  0.94206200  0.25730700  0.21534400  1
  C  1918  1  0.90487500  0.25694200  0.21429700  1
  C  1920  1  0.94042400  0.33207600  0.19380800  1
  C  1921  1  0.90293400  0.33160800  0.19293700  1
  C  1927  1  0.88111200  0.34808000  0.18539800  1
  C  1933  1  0.88391800  0.72283800  0.89231300  1
  C  1934  1  0.90278800  0.70361000  0.89626300  1
  C  1935  1  0.94041600  0.70315600  0.89566300  1
  C  1936  1  0.95904700  0.72240500  0.89091100  1
  C  1937  1  0.94004700  0.74139800  0.88653900  1
  C  1938  1  0.90284600  0.74164000  0.88732200  1
  C  1940  1  0.93893600  0.66677000  0.90851700  1
  C  1941  1  0.90144300  0.66710600  0.90922000  1
  C  1947  1  0.87994800  0.65055500  0.91688200  1
  C  1953  1  0.45723700  0.65896800  0.82533200  1
  C  1954  1  0.43839600  0.65478900  0.84452000  1
  C  1955  1  0.40075000  0.65543100  0.84504800  1
  C  1956  1  0.38199700  0.66057300  0.82594800  1
  C  1957  1  0.40092500  0.66498500  0.80693000  1
  C  1958  1  0.43814400  0.66410200  0.80661200  1
  C  1960  1  0.40235700  0.64205700  0.88122700  1
  C  1961  1  0.43983400  0.64138000  0.88081900  1
  C  1967  1  0.46104200  0.63342700  0.89734300  1
  C  1973  1  0.45686300  0.33961800  0.27681800  1
  C  1974  1  0.43805700  0.34384900  0.25762700  1
  C  1975  1  0.40040200  0.34324900  0.25710100  1
  C  1976  1  0.38159900  0.33812900  0.27620700  1
  C  1977  1  0.40056200  0.33361300  0.29518700  1
  C  1978  1  0.43778100  0.33444200  0.29551900  1
  C  1980  1  0.40209200  0.35663600  0.22092200  1
  C  1981  1  0.43957100  0.35724100  0.22132000  1
  C  1987  1  0.46083000  0.36519000  0.20481600  1
  C  1993  1  0.45716500  0.22496200  0.71082300  1
  C  1994  1  0.43839600  0.20574000  0.70668100  1
  C  1995  1  0.40075300  0.20516400  0.70729200  1
  C  1996  1  0.38191500  0.22425700  0.71234400  1
  C  1997  1  0.40076300  0.24331300  0.71672100  1
  C  1998  1  0.43798800  0.24367400  0.71588300  1
  C  2000  1  0.40250300  0.16896600  0.69397600  1
  C  2001  1  0.43997900  0.16942800  0.69329900  1
  C  2007  1  0.46128100  0.15294500  0.68535100  1
  C  2013  1  0.45704600  0.77359300  0.39129200  1
  C  2014  1  0.43821100  0.79278100  0.39549400  1
  C  2015  1  0.40056200  0.79329100  0.39483400  1
  C  2016  1  0.38181700  0.77417300  0.38968900  1
  C  2017  1  0.40080000  0.75519800  0.38519800  1
  C  2018  1  0.43801700  0.75488200  0.38608600  1
  C  2020  1  0.40213400  0.82945400  0.40827700  1
  C  2021  1  0.43960800  0.82907000  0.40894000  1
  C  2027  1  0.46077400  0.84558400  0.41695500  1
  C  2033  1  0.38499600  0.33964700  0.82533800  1
  C  2034  1  0.40385000  0.34380900  0.84452700  1
  C  2035  1  0.44149400  0.34314900  0.84505100  1
  C  2036  1  0.46023600  0.33800300  0.82594800  1
  C  2037  1  0.44129700  0.33360000  0.80693300  1
  C  2038  1  0.40407800  0.33450500  0.80661700  1
  C  2040  1  0.43991100  0.35652800  0.88123000  1
  C  2041  1  0.40243600  0.35722100  0.88082400  1
  C  2047  1  0.38124900  0.36519200  0.89735100  1
  C  2053  1  0.38531700  0.65899200  0.27682000  1
  C  2054  1  0.40412300  0.65476200  0.25762800  1
  C  2055  1  0.44178000  0.65536200  0.25710200  1
  C  2056  1  0.46058100  0.66048100  0.27620900  1
  C  2057  1  0.44162100  0.66499700  0.29518700  1
  C  2058  1  0.40439900  0.66416800  0.29551900  1
  C  2060  1  0.44008800  0.64197500  0.22092200  1
  C  2061  1  0.40260900  0.64137000  0.22132100  1
  C  2067  1  0.38135000  0.63342000  0.20481600  1
  C  2073  1  0.38501700  0.77364900  0.71082300  1
  C  2074  1  0.40378600  0.79287100  0.70668100  1
  C  2075  1  0.44143000  0.79344700  0.70729200  1
  C  2076  1  0.46026800  0.77435300  0.71234400  1
  C  2077  1  0.44141900  0.75529800  0.71672100  1
  C  2078  1  0.40419400  0.75493700  0.71588300  1
  C  2080  1  0.43968000  0.82964400  0.69397600  1
  C  2081  1  0.40220300  0.82918200  0.69329900  1
  C  2087  1  0.38090200  0.84566600  0.68535100  1
  C  2093  1  0.38513700  0.22501900  0.39129200  1
  C  2094  1  0.40397200  0.20583100  0.39549400  1
  C  2095  1  0.44162100  0.20532100  0.39483400  1
  C  2096  1  0.46036600  0.22443900  0.38968900  1
  C  2097  1  0.44138500  0.24341400  0.38519800  1
  C  2098  1  0.40416800  0.24373000  0.38608600  1
  C  2100  1  0.44004600  0.16915700  0.40827700  1
  C  2101  1  0.40257200  0.16954200  0.40894000  1
  C  2107  1  0.38140600  0.15302900  0.41695500  1
  N  839  1  0.19302200  0.97711500  0.25722100  1
  N  842  1  0.19140900  0.02049300  0.25614900  1
  N  851  1  0.13047500  0.04219000  0.27524800  1
  N  852  1  0.12963800  0.95600200  0.27741200  1
  N  859  1  0.19234200  0.02132900  0.84499700  1
  N  862  1  0.19150800  0.97793700  0.84582000  1
  N  871  1  0.13129400  0.95579600  0.82633800  1
  N  872  1  0.12862900  0.04223700  0.82496100  1
  N  879  1  0.19281700  0.79328600  0.02878200  1
  N  882  1  0.19134200  0.79418100  0.07217000  1
  N  891  1  0.13039100  0.77501600  0.09382000  1
  N  892  1  0.12939100  0.77313700  0.00766500  1
  N  899  1  0.19255600  0.20569300  0.07307500  1
  N  902  1  0.19136500  0.20459300  0.02970300  1
  N  911  1  0.13118500  0.22403000  0.00756100  1
  N  912  1  0.12905900  0.22604600  0.09410700  1
  N  919  1  0.64919300  0.02149400  0.25721300  1
  N  922  1  0.65079200  0.97811600  0.25615100  1
  N  931  1  0.71172300  0.95641400  0.27525100  1
  N  932  1  0.71258200  0.04260800  0.27739700  1
  N  939  1  0.64984200  0.97728200  0.84499700  1
  N  942  1  0.65067200  0.02067400  0.84582000  1
  N  951  1  0.71088500  0.04281400  0.82633600  1
  N  952  1  0.71355300  0.95637400  0.82496100  1
  N  959  1  0.64943100  0.20529500  0.02880100  1
  N  962  1  0.65075700  0.20435700  0.07218800  1
  N  971  1  0.71154000  0.22353400  0.09397600  1
  N  972  1  0.71296900  0.22540600  0.00776300  1
  N  979  1  0.64963000  0.79291900  0.07307500  1
  N  982  1  0.65081800  0.79401600  0.02970300  1
  N  991  1  0.71099900  0.77457800  0.00756100  1
  N  992  1  0.71312800  0.77256600  0.09410800  1
  N  999  1  0.69175800  0.47711800  0.75759900  1
  N  1002  1  0.69033100  0.52048500  0.75643100  1
  N  1011  1  0.62962600  0.54248000  0.77551000  1
  N  1012  1  0.62813300  0.45600600  0.77775600  1
  N  1019  1  0.69133600  0.52141700  0.34466200  1
  N  1022  1  0.69040800  0.47803700  0.34563000  1
  N  1031  1  0.62995200  0.45584700  0.32645900  1
  N  1032  1  0.62749400  0.54239600  0.32464900  1
  N  1039  1  0.69164400  0.29282500  0.52888300  1
  N  1042  1  0.69028600  0.29391000  0.57225400  1
  N  1051  1  0.62960200  0.27479700  0.59424600  1
  N  1052  1  0.62800800  0.27267700  0.50776100  1
  N  1059  1  0.69155700  0.70582900  0.57317900  1
  N  1062  1  0.69045900  0.70472200  0.52980800  1
  N  1071  1  0.63001000  0.72387600  0.50762600  1
  N  1072  1  0.62776400  0.72592200  0.59417700  1
  N  1079  1  0.15041300  0.52149900  0.75759700  1
  N  1082  1  0.15183800  0.47813200  0.75642400  1
  N  1091  1  0.21254300  0.45613400  0.77549900  1
  N  1092  1  0.21404400  0.54260800  0.77775400  1
  N  1099  1  0.15084400  0.47719300  0.34466200  1
  N  1102  1  0.15177500  0.52057400  0.34563000  1
  N  1111  1  0.21223100  0.54276400  0.32646100  1
  N  1112  1  0.21468900  0.45621400  0.32464900  1
  N  1119  1  0.15053900  0.70578500  0.52888300  1
  N  1122  1  0.15189600  0.70470100  0.57225400  1
  N  1131  1  0.21258100  0.72381400  0.59424600  1
  N  1132  1  0.21417500  0.72593100  0.50776100  1
  N  1139  1  0.15062400  0.29278200  0.57317900  1
  N  1142  1  0.15172400  0.29389000  0.52980800  1
  N  1151  1  0.21217200  0.27473700  0.50762600  1
  N  1152  1  0.21441700  0.27268700  0.59417700  1
  N  1159  1  0.19275300  0.13512800  0.44319600  1
  N  1162  1  0.14668700  0.11147300  0.41966500  1
  N  1171  1  0.12274800  0.12763800  0.37924600  1
  N  1172  1  0.21810400  0.17569800  0.42378000  1
  N  1179  1  0.19155300  0.86363800  0.66079700  1
  N  1182  1  0.14850600  0.88714800  0.68646700  1
  N  1191  1  0.12907800  0.86990900  0.72809400  1
  N  1192  1  0.21737900  0.82258500  0.67781500  1
  N  1199  1  0.19303900  0.60712000  0.18689300  1
  N  1202  1  0.14676300  0.63063000  0.16336200  1
  N  1211  1  0.12279600  0.67107300  0.17966900  1
  N  1212  1  0.21871200  0.62653700  0.22738300  1
  N  1219  1  0.19187500  0.38905800  0.91542700  1
  N  1222  1  0.14940100  0.36332300  0.93922500  1
  N  1231  1  0.12934100  0.32191500  0.92202900  1
  N  1232  1  0.21708200  0.37196400  0.87416700  1
  N  1239  1  0.64943700  0.86348200  0.44318200  1
  N  1242  1  0.69552600  0.88713700  0.41966700  1
  N  1251  1  0.71951100  0.87097000  0.37925700  1
  N  1252  1  0.62410200  0.82290900  0.42375100  1
  N  1259  1  0.65063000  0.13497200  0.66079900  1
  N  1262  1  0.69367500  0.11146000  0.68647000  1
  N  1271  1  0.71310400  0.12870000  0.72809400  1
  N  1272  1  0.62480500  0.17602500  0.67781600  1
  N  1279  1  0.64914500  0.39147900  0.18689300  1
  N  1282  1  0.69546000  0.36799500  0.16336800  1
  N  1291  1  0.71949500  0.32756600  0.17968000  1
  N  1292  1  0.62349500  0.37204400  0.22738900  1
  N  1299  1  0.65026100  0.60955800  0.91543200  1
  N  1302  1  0.69275000  0.63529300  0.93922000  1
  N  1311  1  0.71282100  0.67669500  0.92201500  1
  N  1312  1  0.62503500  0.62665100  0.87417500  1
  N  1319  1  0.64951900  0.86319500  0.65989400  1
  N  1322  1  0.69589500  0.88644900  0.68361100  1
  N  1331  1  0.71986100  0.86952800  0.72402700  1
  N  1332  1  0.62398500  0.82282100  0.67835400  1
  N  1339  1  0.64917700  0.13507900  0.44198200  1
  N  1342  1  0.69591900  0.11229800  0.41810400  1
  N  1351  1  0.71998800  0.12972300  0.37807800  1
  N  1352  1  0.62349200  0.17557300  0.42403700  1
  N  1359  1  0.64923500  0.39044600  0.91496700  1
  N  1362  1  0.69579100  0.36674500  0.93810000  1
  N  1371  1  0.71977600  0.32634200  0.92103700  1
  N  1372  1  0.62341800  0.37198000  0.87465800  1
  N  1379  1  0.65008600  0.60993900  0.18635700  1
  N  1382  1  0.69299400  0.63622600  0.16347300  1
  N  1391  1  0.71214500  0.67745400  0.18181100  1
  N  1392  1  0.62411500  0.62505300  0.22701900  1
  N  1399  1  0.19266200  0.13541600  0.65989400  1
  N  1402  1  0.14628800  0.11216200  0.68361100  1
  N  1411  1  0.12232100  0.12908300  0.72402700  1
  N  1412  1  0.21819800  0.17578900  0.67835400  1
  N  1419  1  0.19301200  0.86353000  0.44198500  1
  N  1422  1  0.14626300  0.88630800  0.41811000  1
  N  1431  1  0.12218000  0.86887900  0.37808800  1
  N  1432  1  0.21869000  0.82303300  0.42403900  1
  N  1439  1  0.19295000  0.60817200  0.91496000  1
  N  1442  1  0.14638600  0.63186900  0.93809500  1
  N  1451  1  0.12239200  0.67226800  0.92103300  1
  N  1452  1  0.21876900  0.62664800  0.87465200  1
  N  1459  1  0.19209600  0.38867500  0.18635700  1
  N  1462  1  0.14918800  0.36238600  0.16347300  1
  N  1471  1  0.13003800  0.32115800  0.18181200  1
  N  1472  1  0.21807000  0.37356000  0.22701700  1
  N  1479  1  0.10301100  0.13616300  0.15448800  1
  N  1482  1  0.10546600  0.10697800  0.18632500  1
  N  1491  1  0.05586800  0.10677600  0.21763500  1
  N  1492  1  0.05052400  0.16751700  0.15685500  1
  N  1499  1  0.10256400  0.86310700  0.94734400  1
  N  1502  1  0.10581700  0.89182500  0.91511600  1
  N  1511  1  0.05678800  0.89168400  0.88341500  1
  N  1512  1  0.04979400  0.83204000  0.94518000  1
  N  1519  1  0.10285800  0.89607700  0.18762300  1
  N  1522  1  0.10559000  0.86404500  0.15867700  1
  N  1531  1  0.05602400  0.83274100  0.15858400  1
  N  1532  1  0.04980200  0.89406300  0.21862800  1
  N  1539  1  0.10256700  0.10304500  0.91487800  1
  N  1542  1  0.10589300  0.13532100  0.94354500  1
  N  1551  1  0.05688800  0.16703900  0.94339000  1
  N  1552  1  0.04978000  0.10515000  0.88382200  1
  N  1559  1  0.73917600  0.86245200  0.15449800  1
  N  1562  1  0.73671800  0.89163400  0.18633800  1
  N  1571  1  0.78632100  0.89183600  0.21764900  1
  N  1572  1  0.79165900  0.83109600  0.15686400  1
  N  1579  1  0.73962400  0.13550900  0.94734000  1
  N  1582  1  0.73636500  0.10678700  0.91511600  1
  N  1591  1  0.78539100  0.10692400  0.88341200  1
  N  1592  1  0.79240200  0.16657200  0.94517500  1
  N  1599  1  0.73930900  0.10257900  0.18759600  1
  N  1602  1  0.73656700  0.13461000  0.15864600  1
  N  1611  1  0.78614400  0.16592200  0.15854800  1
  N  1612  1  0.79235400  0.10460100  0.21860500  1
  N  1619  1  0.73961600  0.89556300  0.91488000  1
  N  1622  1  0.73628900  0.86328700  0.94354500  1
  N  1631  1  0.78529000  0.83156700  0.94338600  1
  N  1632  1  0.79240200  0.89345800  0.88382200  1
  N  1639  1  0.60298100  0.63593400  0.65470900  1
  N  1642  1  0.60563800  0.60684500  0.68651500  1
  N  1651  1  0.55553900  0.60620800  0.71759800  1
  N  1652  1  0.54944000  0.66666667  0.65654200  1
  N  1659  1  0.60306100  0.36275000  0.44720700  1
  N  1662  1  0.60569100  0.39187100  0.41548200  1
  N  1671  1  0.55575100  0.39245300  0.38435000  1
  N  1672  1  0.54969500  0.33204700  0.44525600  1
  N  1679  1  0.60309500  0.39568600  0.68771200  1
  N  1682  1  0.60570400  0.36394000  0.65861200  1
  N  1691  1  0.55575400  0.33275900  0.65815000  1
  N  1692  1  0.54958300  0.39381500  0.71838600  1
  N  1699  1  0.60288800  0.60312500  0.41464500  1
  N  1702  1  0.60565900  0.63490600  0.44369200  1
  N  1711  1  0.55566400  0.66600700  0.44433700  1
  N  1712  1  0.54921200  0.60487500  0.38414100  1
  N  1719  1  0.23919900  0.36267300  0.65470500  1
  N  1722  1  0.23654300  0.39176500  0.68650900  1
  N  1731  1  0.28664300  0.39240500  0.71759000  1
  N  1732  1  0.29274200  0.33200100  0.65653900  1
  N  1739  1  0.23912000  0.63586000  0.44720700  1
  N  1742  1  0.23649100  0.60674000  0.41548400  1
  N  1751  1  0.28643400  0.60615600  0.38435300  1
  N  1752  1  0.29248800  0.66656300  0.44525600  1
  N  1759  1  0.23908600  0.60292400  0.68771400  1
  N  1762  1  0.23647700  0.63467000  0.65861200  1
  N  1771  1  0.28642900  0.66584900  0.65815000  1
  N  1772  1  0.29259700  0.60479500  0.71838800  1
  N  1779  1  0.23929300  0.39548600  0.41464300  1
  N  1782  1  0.23652600  0.36370800  0.44369200  1
  N  1791  1  0.28652200  0.33260900  0.44434000  1
  N  1792  1  0.29297300  0.39373700  0.38413900  1
  N  1799  1  0.88441700  0.14854200  0.36592000  1
  N  1802  1  0.95556000  0.14697800  0.36465800  1
  N  1811  1  0.98938500  0.14971700  0.32498500  1
  N  1812  1  0.85003200  0.15215500  0.32536200  1
  N  1819  1  0.88494400  0.85015600  0.73623300  1
  N  1822  1  0.95609300  0.85173300  0.73746200  1
  N  1831  1  0.99025000  0.84874800  0.77693100  1
  N  1832  1  0.85043200  0.84665100  0.77670700  1
  N  1839  1  0.88367900  0.68428200  0.20038100  1
  N  1842  1  0.95477200  0.68573900  0.19873200  1
  N  1851  1  0.98847300  0.72544100  0.20126400  1
  N  1852  1  0.84880100  0.72467000  0.20397200  1
  N  1859  1  0.88532300  0.31405400  0.90190900  1
  N  1862  1  0.95650100  0.31285100  0.90324700  1
  N  1871  1  0.99050100  0.27339000  0.90023700  1
  N  1872  1  0.85081900  0.27360000  0.89840300  1
  N  1879  1  0.95770000  0.85009500  0.36591500  1
  N  1882  1  0.88655600  0.85162900  0.36464200  1
  N  1891  1  0.85272800  0.84885000  0.32496900  1
  N  1892  1  0.99211600  0.84648700  0.32536300  1
  N  1899  1  0.95723600  0.14845300  0.73623300  1
  N  1902  1  0.88609000  0.14687800  0.73746200  1
  N  1911  1  0.85193300  0.14986300  0.77693300  1
  N  1912  1  0.99175000  0.15196000  0.77670700  1
  N  1919  1  0.95847700  0.31431100  0.20038900  1
  N  1922  1  0.88738400  0.31284300  0.19873200  1
  N  1931  1  0.85369400  0.27313600  0.20125900  1
  N  1932  1  0.99337600  0.27392900  0.20397300  1
  N  1939  1  0.95685100  0.68456000  0.90191300  1
  N  1942  1  0.88567300  0.68576000  0.90324300  1
  N  1951  1  0.85167000  0.72521900  0.90023200  1
  N  1952  1  0.99135500  0.72501500  0.89840500  1
  N  1959  1  0.38435700  0.64893600  0.86357200  1
  N  1962  1  0.45562500  0.64757100  0.86224200  1
  N  1971  1  0.48961200  0.65123000  0.82280700  1
  N  1972  1  0.34933300  0.65351500  0.82336800  1
  N  1979  1  0.38405500  0.34977900  0.23857300  1
  N  1982  1  0.45531700  0.35103600  0.23990500  1
  N  1991  1  0.48929100  0.34733000  0.27925400  1
  N  1992  1  0.34891700  0.34518700  0.27870200  1
  N  1999  1  0.38443400  0.18660400  0.70082800  1
  N  2002  1  0.45568800  0.18803100  0.69948300  1
  N  2011  1  0.48950300  0.22750100  0.70303700  1
  N  2012  1  0.34933000  0.22674700  0.70512900  1
  N  2019  1  0.38416100  0.81180500  0.40136100  1
  N  2022  1  0.45541000  0.81050400  0.40273700  1
  N  2031  1  0.48937800  0.77117000  0.39913400  1
  N  2032  1  0.34918700  0.77168500  0.39680100  1
  N  2039  1  0.45790000  0.34963700  0.86357500  1
  N  2042  1  0.38663500  0.35103800  0.86225000  1
  N  2051  1  0.35266100  0.34744100  0.82281500  1
  N  2052  1  0.49289500  0.34506300  0.82336300  1
  N  2059  1  0.45812500  0.64883200  0.23857300  1
  N  2062  1  0.38686000  0.64757200  0.23990500  1
  N  2071  1  0.35289200  0.65128000  0.27925500  1
  N  2072  1  0.49326300  0.65342400  0.27870200  1
  N  2079  1  0.45774900  0.81200600  0.70082800  1
  N  2082  1  0.38649400  0.81058000  0.69948500  1
  N  2091  1  0.35267900  0.77110900  0.70303700  1
  N  2092  1  0.49285200  0.77186300  0.70512900  1
  N  2099  1  0.45802200  0.18680700  0.40136100  1
  N  2102  1  0.38677000  0.18810800  0.40273700  1
  N  2111  1  0.35280700  0.22744400  0.39913500  1
  N  2112  1  0.49299800  0.22692500  0.39680100  1
  O  845  1  0.24401800  0.97637400  0.23580600  1
  O  848  1  0.23554100  0.04043200  0.22841800  1
  O  849  1  0.27592300  0.02013100  0.23786100  1
  O  865  1  0.24351600  0.02228400  0.86624800  1
  O  868  1  0.23596500  0.95818800  0.87351800  1
  O  869  1  0.27606300  0.97872900  0.86411600  1
  O  885  1  0.24382300  0.81469800  0.02807300  1
  O  888  1  0.23550500  0.82188100  0.09215100  1
  O  889  1  0.27584300  0.81247400  0.07180100  1
  O  905  1  0.24365900  0.18437600  0.07401300  1
  O  908  1  0.23571300  0.17684800  0.00994100  1
  O  909  1  0.27592500  0.18623500  0.03039900  1
  O  925  1  0.59819200  0.02223700  0.23580100  1
  O  928  1  0.60665100  0.95817500  0.22842700  1
  O  929  1  0.56627600  0.97848400  0.23786900  1
  O  945  1  0.59866700  0.97632600  0.86624800  1
  O  948  1  0.60621600  0.04042100  0.87351800  1
  O  949  1  0.56611900  0.01988100  0.86411600  1
  O  965  1  0.59835900  0.18394600  0.02800700  1
  O  968  1  0.60650200  0.17665300  0.09208300  1
  O  969  1  0.56622300  0.18608300  0.07169700  1
  O  985  1  0.59852600  0.81423400  0.07401200  1
  O  988  1  0.60647100  0.82176100  0.00994100  1
  O  989  1  0.56626000  0.81237300  0.03039900  1
  O  1005  1  0.74288300  0.47625400  0.73628900  1
  O  1008  1  0.73463400  0.54030900  0.72870200  1
  O  1009  1  0.77492900  0.51993700  0.73813400  1
  O  1025  1  0.74260500  0.52239300  0.36583500  1
  O  1028  1  0.73499700  0.45829000  0.37324300  1
  O  1029  1  0.77507800  0.47885000  0.36387100  1
  O  1045  1  0.74276900  0.31413100  0.52803100  1
  O  1048  1  0.73462300  0.32160400  0.59210000  1
  O  1049  1  0.77488700  0.31219900  0.57169000  1
  O  1065  1  0.74278800  0.68462200  0.57415200  1
  O  1068  1  0.73494900  0.67705100  0.51007000  1
  O  1069  1  0.77510700  0.68643500  0.53056900  1
  O  1085  1  0.09928900  0.52236400  0.73628900  1
  O  1088  1  0.10753600  0.45831000  0.72869700  1
  O  1089  1  0.06724100  0.47868200  0.73813100  1
  O  1105  1  0.09957600  0.47621800  0.36583500  1
  O  1108  1  0.10718600  0.54032000  0.37324400  1
  O  1109  1  0.06710300  0.51976000  0.36387100  1
  O  1125  1  0.09941300  0.68447900  0.52803100  1
  O  1128  1  0.10755900  0.67700600  0.59210000  1
  O  1129  1  0.06729600  0.68641100  0.57169000  1
  O  1145  1  0.09939400  0.31398800  0.57415300  1
  O  1148  1  0.10723300  0.32156100  0.51007000  1
  O  1149  1  0.06707500  0.31217700  0.53056900  1
  O  1165  1  0.18978200  0.11076300  0.47162400  1
  O  1168  1  0.11338500  0.07853500  0.43884700  1
  O  1169  1  0.15848600  0.07055900  0.45586100  1
  O  1185  1  0.18686600  0.88873700  0.63313900  1
  O  1188  1  0.11277200  0.91992900  0.66820500  1
  O  1189  1  0.15619000  0.92841600  0.64966000  1
  O  1205  1  0.19001700  0.57870800  0.16252300  1
  O  1208  1  0.11343700  0.61146100  0.13040500  1
  O  1209  1  0.15844100  0.59435200  0.12242300  1
  O  1225  1  0.18761600  0.41667800  0.94059200  1
  O  1228  1  0.11436400  0.38131300  0.97236500  1
  O  1229  1  0.15733100  0.40045900  0.98036200  1
  O  1245  1  0.65238000  0.88784600  0.47161100  1
  O  1248  1  0.72880000  0.92008300  0.43884700  1
  O  1249  1  0.68370700  0.92804700  0.45587600  1
  O  1265  1  0.65531500  0.10987400  0.63314100  1
  O  1268  1  0.72940700  0.07867900  0.66820800  1
  O  1269  1  0.68599100  0.07019400  0.64966100  1
  O  1285  1  0.65213100  0.41989100  0.16252400  1
  O  1288  1  0.72875000  0.38716200  0.13040200  1
  O  1289  1  0.68374500  0.40427300  0.12242900  1
  O  1305  1  0.65452300  0.58194200  0.94059800  1
  O  1308  1  0.72778400  0.61731100  0.97236500  1
  O  1309  1  0.68483400  0.59815100  0.98035900  1
  O  1325  1  0.65284700  0.88762600  0.63159800  1
  O  1328  1  0.72937500  0.91955500  0.66492200  1
  O  1329  1  0.68548100  0.92733000  0.64670100  1
  O  1345  1  0.65266900  0.11039100  0.47002100  1
  O  1348  1  0.72924300  0.07880900  0.43579700  1
  O  1349  1  0.68674100  0.07119700  0.45519400  1
  O  1365  1  0.65268000  0.41874100  0.93938000  1
  O  1368  1  0.72934100  0.38535200  0.97121300  1
  O  1369  1  0.68568800  0.40378300  0.97896700  1
  O  1385  1  0.65538400  0.58269800  0.16094700  1
  O  1388  1  0.72904700  0.61894200  0.13033700  1
  O  1389  1  0.68742800  0.59885400  0.12203200  1
  O  1405  1  0.18933500  0.11098400  0.63159800  1
  O  1408  1  0.11280800  0.07905500  0.66492200  1
  O  1409  1  0.15670000  0.07128000  0.64670100  1
  O  1425  1  0.18953000  0.88822000  0.47002100  1
  O  1428  1  0.11295400  0.91980500  0.43579200  1
  O  1429  1  0.15543200  0.92740700  0.45521100  1
  O  1445  1  0.18950900  0.57987600  0.93937400  1
  O  1448  1  0.11284100  0.61325800  0.97120800  1
  O  1449  1  0.15650100  0.59483200  0.97896000  1
  O  1465  1  0.18679600  0.41591600  0.16094700  1
  O  1468  1  0.11313200  0.37967100  0.13033900  1
  O  1469  1  0.15475300  0.39975600  0.12203200  1
  O  1485  1  0.15769900  0.12478700  0.14104800  1
  O  1488  1  0.15751900  0.07804600  0.18741300  1
  O  1489  1  0.19354100  0.09868100  0.17353800  1
  O  1505  1  0.15726100  0.87432800  0.96086600  1
  O  1508  1  0.15806900  0.92061900  0.91402800  1
  O  1509  1  0.19374500  0.90017700  0.92853100  1
  O  1525  1  0.15771800  0.90938700  0.17644200  1
  O  1528  1  0.15789300  0.86256600  0.12999800  1
  O  1529  1  0.19372000  0.87714300  0.15026700  1
  O  1545  1  0.15719900  0.08947100  0.92616000  1
  O  1548  1  0.15810100  0.13631700  0.97239300  1
  O  1549  1  0.19377300  0.12189700  0.95188600  1
  O  1565  1  0.68449000  0.87383000  0.14105600  1
  O  1568  1  0.68466700  0.92056900  0.18742100  1
  O  1569  1  0.64864600  0.89993400  0.17354600  1
  O  1585  1  0.68492700  0.12429000  0.96086600  1
  O  1588  1  0.68411300  0.07799300  0.91403300  1
  O  1589  1  0.64844000  0.09843600  0.92853600  1
  O  1605  1  0.68446100  0.08925700  0.17640900  1
  O  1608  1  0.68427500  0.13603100  0.12994300  1
  O  1609  1  0.64844200  0.12153400  0.15026900  1
  O  1625  1  0.68498600  0.90913800  0.92616300  1
  O  1628  1  0.68408100  0.86229300  0.97239500  1
  O  1629  1  0.64840800  0.87671000  0.95188600  1
  O  1645  1  0.65821600  0.62552000  0.64168800  1
  O  1648  1  0.65908900  0.57976000  0.69048900  1
  O  1649  1  0.69347400  0.59639800  0.67102700  1
  O  1665  1  0.65849200  0.37277700  0.46005200  1
  O  1668  1  0.65974100  0.41807200  0.41030800  1
  O  1669  1  0.69308900  0.40344000  0.43184500  1
  O  1685  1  0.65856400  0.40848400  0.67771900  1
  O  1688  1  0.65978900  0.35864100  0.63248500  1
  O  1689  1  0.69305700  0.38035200  0.64691600  1
  O  1705  1  0.65843900  0.59036400  0.42450500  1
  O  1708  1  0.65990300  0.64027400  0.46968000  1
  O  1709  1  0.69304400  0.61845500  0.45530600  1
  O  1725  1  0.18396300  0.37308400  0.64168600  1
  O  1728  1  0.18308700  0.41884400  0.69049300  1
  O  1729  1  0.14870900  0.40221700  0.67101700  1
  O  1745  1  0.18368800  0.62583800  0.46005000  1
  O  1748  1  0.18243900  0.58054300  0.41030200  1
  O  1749  1  0.14909600  0.59516400  0.43185000  1
  O  1765  1  0.18361600  0.59012800  0.67772200  1
  O  1768  1  0.18238800  0.63997700  0.63249100  1
  O  1769  1  0.14912800  0.61825400  0.64690800  1
  O  1785  1  0.18373500  0.40824000  0.42449400  1
  O  1788  1  0.18226900  0.35831900  0.46966200  1
  O  1789  1  0.14914800  0.38017000  0.45532400  1
  O  1805  1  0.88322600  0.13501600  0.40077200  1
  O  1808  1  0.99200000  0.12824100  0.39589800  1
  O  1809  1  0.95350500  0.13248200  0.41906300  1
  O  1825  1  0.88362600  0.86345000  0.70132000  1
  O  1828  1  0.99256200  0.87022400  0.70611800  1
  O  1829  1  0.95369000  0.86667200  0.68308000  1
  O  1845  1  0.88270300  0.64933200  0.18713200  1
  O  1848  1  0.99180100  0.65450800  0.18059300  1
  O  1849  1  0.95307200  0.63135400  0.18380200  1
  O  1865  1  0.88411700  0.34891900  0.91536800  1
  O  1868  1  0.99275000  0.34409300  0.92223100  1
  O  1869  1  0.95418300  0.36723400  0.91799200  1
  O  1885  1  0.95887400  0.86359500  0.40077200  1
  O  1888  1  0.85003700  0.87027800  0.39588800  1
  O  1889  1  0.88861700  0.86625300  0.41903600  1
  O  1905  1  0.95855300  0.13516100  0.70132000  1
  O  1908  1  0.84962100  0.12838700  0.70611800  1
  O  1909  1  0.88849000  0.13193900  0.68308000  1
  O  1925  1  0.95944400  0.34926400  0.18715300  1
  O  1928  1  0.85033900  0.34407700  0.18061400  1
  O  1929  1  0.88908100  0.36722900  0.18378700  1
  O  1945  1  0.95805800  0.64969700  0.91536900  1
  O  1948  1  0.84942200  0.65451600  0.92222500  1
  O  1949  1  0.88799400  0.63137800  0.91799600  1
  O  1965  1  0.38346600  0.63483400  0.89824700  1
  O  1968  1  0.49132200  0.62762700  0.89334100  1
  O  1969  1  0.45414000  0.63455300  0.91669600  1
  O  1985  1  0.38323800  0.36388100  0.20389500  1
  O  1988  1  0.49115800  0.37089200  0.20882300  1
  O  1989  1  0.45392200  0.36412800  0.18545900  1
  O  2005  1  0.38366700  0.15191700  0.68676700  1
  O  2008  1  0.49151000  0.15701200  0.67949900  1
  O  2009  1  0.45435400  0.13358500  0.68625500  1
  O  2025  1  0.38323300  0.84646000  0.41552900  1
  O  2028  1  0.49105400  0.84158100  0.42275700  1
  O  2029  1  0.45393600  0.86493900  0.41572600  1
  O  2045  1  0.45880900  0.36374800  0.89824900  1
  O  2048  1  0.35098800  0.37102400  0.89334800  1
  O  2049  1  0.38811400  0.36399300  0.91670400  1
  O  2065  1  0.45894200  0.63473100  0.20389500  1
  O  2068  1  0.35102200  0.62771800  0.20882500  1
  O  2069  1  0.38825800  0.63448200  0.18545900  1
  O  2085  1  0.45851500  0.84669400  0.68676700  1
  O  2088  1  0.35067200  0.84159900  0.67949900  1
  O  2089  1  0.38782800  0.86502600  0.68625500  1
  O  2105  1  0.45894700  0.15215100  0.41552900  1
  O  2108  1  0.35112500  0.15703100  0.42275700  1
  O  2109  1  0.38824400  0.13367300  0.41572500  1
