# generated using pymatgen
data_H12C17(NO)2
_symmetry_space_group_name_H-M   'P 1'
_cell_length_a   21.54660000
_cell_length_b   52.29155000
_cell_length_c   52.29160000
_cell_angle_alpha   120.00009489
_cell_angle_beta   90.00000000
_cell_angle_gamma   90.00000000
_symmetry_Int_Tables_number   1
_chemical_formula_structural   H12C17(NO)2
_chemical_formula_sum   'H288 C408 N48 O48'
_cell_volume   51023.75438552
_cell_formula_units_Z   24
loop_
 _symmetry_equiv_pos_site_id
 _symmetry_equiv_pos_as_xyz
  1  'x, y, z'
loop_
 _atom_site_type_symbol
 _atom_site_label
 _atom_site_symmetry_multiplicity
 _atom_site_fract_x
 _atom_site_fract_y
 _atom_site_fract_z
 _atom_site_occupancy
  C  1  1  0.75608900  0.89852200  0.29996500  1
  C  2  1  0.81435800  0.91737700  0.30154500  1
  C  3  1  0.69797300  0.91533500  0.29768600  1
  C  4  1  0.69187300  0.94718900  0.32524300  1
  C  7  1  0.75273200  0.96466700  0.32663400  1
  C  8  1  0.81384800  0.94940800  0.32892400  1
  C  13  1  0.80854800  0.94736100  0.35782700  1
  C  14  1  0.74988500  0.92990300  0.35815600  1
  C  17  1  0.69078300  0.94505900  0.35428800  1
  C  20  1  0.75364200  0.89819800  0.32992900  1
  C  23  1  0.75611300  0.42281000  0.12152500  1
  C  24  1  0.81437800  0.40552400  0.10267300  1
  C  25  1  0.69798600  0.40373300  0.10470700  1
  C  26  1  0.69192100  0.39943600  0.07285100  1
  C  29  1  0.75277500  0.38333800  0.05538000  1
  C  30  1  0.81389900  0.40087200  0.07064400  1
  C  35  1  0.80864100  0.43182700  0.07269600  1
  C  36  1  0.74998600  0.44962400  0.09014600  1
  C  39  1  0.69087200  0.43061300  0.07498400  1
  C  42  1  0.75370800  0.45310100  0.12185300  1
  C  45  1  0.75607900  0.72007100  0.59722800  1
  C  46  1  0.81434700  0.71849300  0.61450300  1
  C  47  1  0.69795900  0.72234900  0.61631700  1
  C  48  1  0.69186000  0.69479400  0.62061700  1
  C  51  1  0.75271800  0.69340800  0.63670500  1
  C  52  1  0.81383800  0.69111700  0.61915900  1
  C  57  1  0.80854300  0.66221100  0.58820900  1
  C  58  1  0.74988300  0.66187900  0.57041900  1
  C  61  1  0.69077800  0.66574600  0.58944300  1
  C  64  1  0.75363400  0.69010500  0.56693900  1
  C  67  1  0.25607900  0.12906800  0.71250600  1
  C  68  1  0.31433600  0.11021400  0.71094000  1
  C  69  1  0.19794500  0.11225200  0.71476500  1
  C  70  1  0.19187200  0.08039900  0.68720400  1
  C  73  1  0.25271900  0.06292400  0.68583100  1
  C  74  1  0.31385400  0.07818400  0.68356100  1
  C  79  1  0.30860200  0.08023400  0.65465600  1
  C  80  1  0.24995300  0.09769100  0.65431100  1
  C  83  1  0.19083200  0.08253300  0.65816100  1
  C  86  1  0.25368200  0.12939700  0.68254300  1
  C  89  1  0.25607600  0.60477400  0.89094500  1
  C  90  1  0.31434600  0.62205000  0.90979800  1
  C  91  1  0.19795900  0.62386100  0.90776000  1
  C  92  1  0.19186700  0.62815600  0.93961300  1
  C  95  1  0.25272600  0.64424600  0.95708800  1
  C  96  1  0.31384900  0.62670400  0.94182900  1
  C  101  1  0.30856800  0.59575100  0.93977900  1
  C  102  1  0.24990600  0.57796100  0.92232500  1
  C  105  1  0.19080000  0.59698000  0.93748400  1
  C  108  1  0.25364400  0.57448300  0.89061900  1
  C  111  1  0.25607600  0.30751100  0.41522600  1
  C  112  1  0.31433900  0.30909100  0.39794900  1
  C  113  1  0.19795600  0.30523600  0.39614000  1
  C  114  1  0.19185300  0.33279300  0.39184400  1
  C  117  1  0.25270700  0.33418700  0.37575700  1
  C  118  1  0.31383000  0.33647200  0.39329900  1
  C  123  1  0.30854000  0.36537200  0.42425200  1
  C  124  1  0.24988100  0.36570300  0.44204100  1
  C  127  1  0.19077200  0.36183900  0.42302200  1
  C  130  1  0.25363600  0.33747400  0.44551700  1
  C  133  1  0.26020900  0.59033600  0.69193400  1
  C  134  1  0.19993800  0.60776500  0.69222700  1
  C  135  1  0.31860600  0.60735100  0.68967700  1
  C  136  1  0.31757300  0.61171400  0.66224900  1
  C  139  1  0.25616700  0.62912000  0.66541500  1
  C  140  1  0.19587900  0.61168800  0.66435900  1
  C  145  1  0.19654300  0.57972000  0.63652100  1
  C  146  1  0.25678400  0.56166600  0.63402400  1
  C  149  1  0.31477500  0.58004700  0.63420700  1
  C  152  1  0.25972900  0.55932700  0.66294000  1
  C  155  1  0.26020900  0.32807600  0.89708100  1
  C  156  1  0.19993400  0.32778600  0.91421600  1
  C  157  1  0.31860400  0.33033100  0.91635300  1
  C  158  1  0.31757100  0.35776100  0.94814400  1
  C  161  1  0.25616000  0.35459600  0.96238200  1
  C  162  1  0.19587700  0.35565700  0.94600700  1
  C  167  1  0.19654800  0.38349200  0.94187400  1
  C  168  1  0.25679600  0.38598600  0.92631800  1
  C  171  1  0.31477900  0.38580000  0.94451700  1
  C  174  1  0.25973600  0.35706900  0.89506500  1
  C  177  1  0.26027700  0.12294600  0.42967500  1
  C  178  1  0.19998400  0.10581700  0.41226400  1
  C  179  1  0.31865200  0.10366700  0.41264200  1
  C  180  1  0.31761800  0.07187400  0.40827900  1
  C  183  1  0.25618800  0.05764300  0.39089300  1
  C  184  1  0.19592100  0.07402600  0.40834200  1
  C  189  1  0.19662900  0.07815700  0.44031000  1
  C  190  1  0.25689400  0.09370600  0.45834500  1
  C  193  1  0.31486100  0.07550100  0.43994800  1
  C  196  1  0.25983600  0.12496000  0.46068300  1
  C  199  1  0.76020900  0.43724200  0.32053100  1
  C  200  1  0.69993500  0.41981400  0.32023600  1
  C  201  1  0.81860400  0.42022700  0.32278900  1
  C  202  1  0.81756800  0.41586400  0.35021700  1
  C  205  1  0.75615900  0.39845700  0.34704900  1
  C  206  1  0.69587100  0.41589100  0.34810500  1
  C  211  1  0.69653400  0.44785800  0.37594200  1
  C  212  1  0.75678000  0.46591100  0.37844100  1
  C  215  1  0.81476600  0.44752900  0.37825900  1
  C  218  1  0.75972600  0.46825100  0.34952600  1
  C  221  1  0.76023400  0.69951400  0.11538600  1
  C  222  1  0.69994000  0.69979200  0.09825600  1
  C  223  1  0.81860900  0.69726600  0.09610600  1
  C  224  1  0.81757800  0.66983600  0.06431700  1
  C  227  1  0.75614500  0.67298900  0.05008200  1
  C  228  1  0.69588100  0.67192000  0.06646700  1
  C  233  1  0.69659500  0.64408500  0.07060000  1
  C  234  1  0.75686300  0.64160200  0.08615100  1
  C  237  1  0.81482600  0.64179600  0.06794400  1
  C  240  1  0.75980100  0.67052100  0.11740400  1
  C  243  1  0.76023900  0.90463000  0.58277500  1
  C  244  1  0.69994000  0.92175200  0.60018700  1
  C  245  1  0.81860900  0.92391000  0.59981000  1
  C  246  1  0.81756400  0.95570500  0.60418100  1
  C  249  1  0.75613000  0.96992900  0.62156900  1
  C  250  1  0.69587000  0.95354600  0.60411500  1
  C  255  1  0.69657700  0.94942200  0.57214800  1
  C  256  1  0.75684600  0.93387900  0.55411500  1
  C  259  1  0.81480700  0.95208700  0.57251700  1
  C  262  1  0.75979800  0.90262300  0.55177000  1
  C  265  1  0.75542900  0.93314200  0.52458700  1
  C  266  1  0.75727800  0.90689600  0.49667600  1
  C  268  1  0.75107700  0.93310500  0.47017100  1
  C  269  1  0.74915600  0.96043700  0.49700800  1
  C  270  1  0.75160500  0.95981300  0.52365600  1
  C  272  1  0.74898300  0.93254700  0.44293100  1
  C  273  1  0.75054300  0.90468100  0.39020300  1
  C  274  1  0.74729500  0.93030600  0.38747500  1
  C  275  1  0.74359500  0.95754300  0.41450500  1
  C  278  1  0.74476100  0.95929400  0.44232300  1
  C  279  1  0.74275000  0.98659100  0.46915700  1
  C  280  1  0.74504700  0.98716400  0.49640500  1
  C  287  1  0.75545300  0.61281700  0.08689700  1
  C  288  1  0.75731400  0.61115600  0.11314500  1
  C  290  1  0.75116800  0.55843900  0.08694200  1
  C  291  1  0.74923800  0.55794200  0.05960600  1
  C  292  1  0.75165200  0.58521000  0.06022600  1
  C  294  1  0.74910400  0.53175700  0.08750000  1
  C  295  1  0.75066700  0.50689500  0.11536700  1
  C  296  1  0.74743200  0.47854100  0.08974300  1
  C  297  1  0.74377200  0.47833300  0.06250400  1
  C  300  1  0.74490000  0.50440000  0.06075200  1
  C  301  1  0.74289400  0.50393400  0.03345500  1
  C  302  1  0.74515000  0.53060800  0.03288000  1
  C  309  1  0.75532800  0.49544000  0.40722800  1
  C  310  1  0.75718400  0.52335100  0.40889200  1
  C  312  1  0.75101100  0.54986100  0.46160700  1
  C  313  1  0.74907700  0.52302300  0.46210400  1
  C  314  1  0.75150800  0.49637500  0.43483300  1
  C  316  1  0.74894700  0.57710200  0.48828900  1
  C  317  1  0.75055200  0.62982800  0.51315000  1
  C  318  1  0.74728400  0.63255900  0.54150500  1
  C  319  1  0.74360900  0.60553000  0.54171200  1
  C  322  1  0.74473700  0.57771100  0.51564600  1
  C  323  1  0.74271900  0.55087900  0.51611200  1
  C  324  1  0.74497900  0.52363100  0.48943600  1
  C  331  1  0.25547800  0.09444800  0.48787500  1
  C  332  1  0.25734600  0.12069600  0.51578600  1
  C  334  1  0.25118000  0.09448800  0.54229400  1
  C  335  1  0.24924500  0.06715600  0.51545700  1
  C  336  1  0.25167000  0.06777700  0.48880900  1
  C  338  1  0.24910600  0.09504900  0.56953700  1
  C  339  1  0.25065600  0.12291500  0.62226500  1
  C  340  1  0.24739300  0.09729000  0.62499600  1
  C  341  1  0.24373800  0.07005100  0.59796200  1
  C  344  1  0.24488700  0.06830000  0.57014300  1
  C  345  1  0.24287800  0.04100300  0.54331200  1
  C  346  1  0.24514200  0.04043000  0.51606400  1
  C  353  1  0.25535500  0.41477100  0.92557500  1
  C  354  1  0.25720000  0.41643300  0.89932500  1
  C  356  1  0.25103900  0.46915000  0.92553100  1
  C  357  1  0.24911500  0.46964500  0.95286400  1
  C  358  1  0.25154500  0.44237800  0.95224600  1
  C  360  1  0.24897100  0.49583200  0.92497300  1
  C  361  1  0.25055600  0.52069000  0.89710300  1
  C  362  1  0.24732400  0.54904600  0.92273000  1
  C  363  1  0.24363100  0.54925300  0.94996500  1
  C  366  1  0.24477300  0.52318900  0.95172000  1
  C  367  1  0.24275900  0.52365400  0.97901700  1
  C  368  1  0.24502900  0.49697800  0.97959000  1
  C  375  1  0.25533200  0.53213700  0.60523700  1
  C  376  1  0.25717900  0.50422700  0.60357500  1
  C  378  1  0.25100400  0.47771800  0.55085800  1
  C  379  1  0.24907500  0.50455500  0.55036200  1
  C  380  1  0.25151200  0.53120200  0.57763100  1
  C  382  1  0.24893600  0.45047700  0.52417500  1
  C  383  1  0.25052600  0.39775100  0.49931300  1
  C  384  1  0.24729300  0.39502200  0.47095800  1
  C  385  1  0.24361000  0.42205300  0.47075300  1
  C  388  1  0.24472900  0.44987000  0.49681900  1
  C  389  1  0.24271300  0.47670200  0.49635400  1
  C  390  1  0.24497700  0.50395000  0.52303100  1
  C  397  1  0.87387500  0.96562200  0.33093700  1
  C  398  1  0.87748600  0.99469900  0.33547000  1
  C  400  1  0.98475600  0.99955500  0.34911000  1
  C  401  1  0.98580500  0.96984300  0.34290000  1
  C  402  1  0.93087800  0.95325800  0.33300800  1
  C  404  1  0.03726500  0.01773900  0.36199000  1
  C  405  1  0.08786200  0.06488000  0.38231700  1
  C  406  1  0.13978700  0.05530000  0.39193000  1
  C  407  1  0.13714600  0.02561500  0.38573200  1
  C  410  1  0.08869300  0.00624300  0.36988600  1
  C  411  1  0.09033100  0.97639900  0.36290600  1
  C  412  1  0.03924700  0.95799000  0.34884000  1
  C  419  1  0.87392100  0.38666800  0.05442600  1
  C  420  1  0.87749600  0.36213200  0.02534600  1
  C  422  1  0.98479600  0.37086900  0.02051100  1
  C  423  1  0.98584300  0.39438000  0.05022500  1
  C  424  1  0.93093300  0.40105900  0.06683000  1
  C  426  1  0.03728400  0.36558100  0.00231800  1
  C  427  1  0.08786700  0.33875400  0.95517600  1
  C  428  1  0.13976400  0.35796500  0.96474200  1
  C  429  1  0.13713700  0.38145200  0.99442700  1
  C  432  1  0.08870700  0.38497200  0.01380800  1
  C  433  1  0.09035700  0.40783600  0.04365300  1
  C  434  1  0.03928400  0.41217600  0.06206500  1
  C  441  1  0.87384200  0.68911400  0.63338000  1
  C  442  1  0.87743600  0.68450800  0.65787600  1
  C  444  1  0.98474600  0.67095000  0.64914100  1
  C  445  1  0.98579000  0.67715100  0.62563000  1
  C  446  1  0.93083100  0.68701500  0.61892600  1
  C  448  1  0.03726300  0.65807300  0.65444400  1
  C  449  1  0.08786200  0.63774900  0.68126100  1
  C  450  1  0.13976400  0.62811500  0.66205300  1
  C  451  1  0.13713900  0.63432700  0.63857600  1
  C  454  1  0.08868400  0.65017400  0.63504900  1
  C  455  1  0.09032200  0.65715700  0.61218800  1
  C  456  1  0.03923000  0.67121600  0.60783900  1
  C  463  1  0.37385400  0.06195900  0.68156700  1
  C  464  1  0.37743200  0.03285400  0.67695800  1
  C  466  1  0.48472300  0.02801700  0.66337400  1
  C  467  1  0.48577800  0.05773000  0.66958800  1
  C  468  1  0.43085800  0.07432200  0.67949300  1
  C  470  1  0.53723200  0.00983400  0.65048600  1
  C  471  1  0.58782500  0.96269000  0.63015000  1
  C  472  1  0.63973200  0.97226800  0.62052300  1
  C  473  1  0.63709600  0.00195700  0.62673300  1
  C  476  1  0.58865300  0.02132900  0.64258700  1
  C  477  1  0.59029800  0.05117700  0.64957800  1
  C  478  1  0.53922000  0.06958600  0.66365200  1
  C  485  1  0.37387000  0.64091100  0.95804100  1
  C  486  1  0.37747100  0.66545600  0.98711700  1
  C  488  1  0.48474100  0.65667600  0.99197900  1
  C  489  1  0.48580200  0.63317400  0.96226600  1
  C  490  1  0.43087900  0.62647900  0.94567600  1
  C  492  1  0.53724300  0.66198000  0.01016800  1
  C  493  1  0.58782200  0.68879400  0.05731300  1
  C  494  1  0.63974700  0.66960000  0.04773800  1
  C  495  1  0.63711400  0.64611400  0.01805300  1
  C  498  1  0.58867100  0.64258700  0.99867600  1
  C  499  1  0.59032200  0.61972600  0.96883100  1
  C  500  1  0.53924600  0.61538400  0.95041800  1
  C  507  1  0.37385600  0.33850100  0.37910700  1
  C  508  1  0.37744400  0.34304700  0.35457400  1
  C  510  1  0.48474400  0.35661500  0.36331400  1
  C  511  1  0.48577800  0.35041700  0.38682700  1
  C  512  1  0.43086300  0.34049500  0.39350500  1
  C  514  1  0.53724700  0.36951200  0.35802400  1
  C  515  1  0.58785900  0.38982100  0.33119600  1
  C  516  1  0.63975100  0.39946400  0.35041000  1
  C  517  1  0.63711800  0.39326100  0.37389200  1
  C  520  1  0.58867100  0.37740700  0.37741500  1
  C  521  1  0.59030600  0.37043000  0.40028100  1
  C  522  1  0.53921800  0.35636800  0.40462500  1
  C  529  1  0.13153000  0.06577400  0.68803700  1
  C  530  1  0.12764600  0.03657000  0.68309400  1
  C  532  1  0.02087000  0.03238100  0.66939900  1
  C  533  1  0.01933900  0.06249400  0.67704800  1
  C  534  1  0.07431000  0.07903600  0.68767600  1
  C  536  1  0.96985800  0.01392400  0.65482600  1
  C  537  1  0.92405500  0.96584700  0.63111600  1
  C  538  1  0.87212100  0.97525400  0.62129700  1
  C  539  1  0.87234000  0.00541800  0.62899000  1
  C  542  1  0.91875100  0.02533500  0.64664400  1
  C  543  1  0.91609600  0.05565500  0.65535400  1
  C  544  1  0.96590000  0.07438700  0.67109900  1
  C  551  1  0.13152400  0.64362100  0.95423700  1
  C  552  1  0.12765100  0.66789200  0.98344100  1
  C  554  1  0.02089600  0.65837500  0.98763900  1
  C  555  1  0.01936600  0.63590500  0.95753100  1
  C  556  1  0.07429000  0.63001100  0.94096200  1
  C  558  1  0.96988100  0.66225700  0.00609700  1
  C  559  1  0.92406900  0.68663100  0.05417400  1
  C  560  1  0.87214400  0.66740100  0.04477000  1
  C  561  1  0.87237200  0.64492400  0.01460700  1
  C  564  1  0.91878200  0.64265900  0.99468900  1
  C  565  1  0.91613600  0.62104400  0.96437200  1
  C  566  1  0.96593100  0.61806100  0.94563800  1
  C  573  1  0.13150000  0.33193800  0.37638800  1
  C  574  1  0.12760200  0.33682800  0.35208600  1
  C  576  1  0.02088200  0.35064000  0.36166700  1
  C  577  1  0.01933700  0.34296500  0.38410800  1
  C  578  1  0.07425000  0.33227000  0.38998400  1
  C  580  1  0.96989500  0.36523700  0.35779600  1
  C  581  1  0.92409800  0.38896100  0.33344100  1
  C  582  1  0.87215800  0.39877200  0.35266400  1
  C  583  1  0.87238400  0.39107600  0.37513400  1
  C  586  1  0.91878800  0.37341600  0.37739100  1
  C  587  1  0.91612300  0.36469100  0.39898800  1
  C  588  1  0.96590400  0.34892300  0.40195700  1
  C  595  1  0.63151600  0.96179800  0.32439900  1
  C  596  1  0.62765600  0.99099700  0.32932300  1
  C  598  1  0.52090200  0.99519200  0.34303600  1
  C  599  1  0.51938000  0.96507500  0.33537600  1
  C  600  1  0.57427900  0.94848500  0.32464400  1
  C  602  1  0.46991300  0.01365600  0.35763500  1
  C  603  1  0.42409800  0.06173000  0.38133100  1
  C  604  1  0.37218500  0.05233000  0.39117100  1
  C  605  1  0.37241500  0.02216700  0.38348500  1
  C  608  1  0.41881400  0.00224900  0.36582600  1
  C  609  1  0.41616900  0.97193200  0.35712100  1
  C  610  1  0.46595600  0.95319800  0.34136100  1
  C  617  1  0.63160000  0.38396400  0.05822700  1
  C  618  1  0.62769400  0.35973400  0.02900200  1
  C  620  1  0.52093300  0.36924100  0.02480500  1
  C  621  1  0.51939400  0.39169700  0.05491900  1
  C  622  1  0.57435800  0.39759200  0.07146500  1
  C  624  1  0.46992000  0.36535800  0.00634800  1
  C  625  1  0.42409800  0.34098400  0.95827400  1
  C  626  1  0.37215500  0.36020500  0.96768400  1
  C  627  1  0.37238700  0.38268200  0.99784800  1
  C  630  1  0.41881000  0.38495100  0.01776200  1
  C  631  1  0.41616000  0.40655900  0.04808200  1
  C  632  1  0.46596100  0.40954300  0.06681400  1
  C  639  1  0.63153200  0.69565700  0.63609600  1
  C  640  1  0.62763600  0.69067200  0.66033400  1
  C  642  1  0.52090200  0.67693200  0.65080100  1
  C  643  1  0.51936900  0.68459000  0.62834800  1
  C  644  1  0.57428200  0.69529300  0.62247900  1
  C  646  1  0.46990200  0.66234100  0.65467100  1
  C  647  1  0.42408900  0.63862700  0.67903300  1
  C  648  1  0.37216000  0.62880700  0.65980400  1
  C  649  1  0.37239600  0.63649600  0.63732900  1
  C  652  1  0.41880300  0.65415400  0.63506900  1
  C  653  1  0.41615800  0.66286600  0.61346300  1
  C  654  1  0.46594200  0.67863300  0.61049600  1
  C  661  1  0.75733200  0.86698300  0.27414500  1
  C  662  1  0.80657900  0.85565200  0.25338500  1
  C  664  1  0.75890700  0.80859000  0.22578000  1
  C  665  1  0.70771000  0.81757300  0.24530300  1
  C  666  1  0.70828400  0.84682200  0.26943500  1
  C  668  1  0.76010800  0.78047800  0.20046100  1
  C  669  1  0.81143400  0.74753100  0.15582600  1
  C  670  1  0.76200100  0.72678700  0.14603300  1
  C  671  1  0.71234100  0.73372000  0.16641800  1
  C  674  1  0.70996400  0.76061200  0.19366500  1
  C  675  1  0.65962200  0.76903800  0.21374000  1
  C  676  1  0.65856600  0.79732900  0.23944500  1
  C  683  1  0.75733300  0.42852500  0.15306200  1
  C  684  1  0.80656400  0.41908600  0.16439400  1
  C  686  1  0.75889300  0.43855700  0.21145800  1
  C  687  1  0.70770000  0.44909600  0.20247000  1
  C  688  1  0.70828600  0.44398100  0.17322200  1
  C  690  1  0.76009400  0.44136300  0.23957500  1
  C  691  1  0.81145700  0.42971300  0.27254100  1
  C  692  1  0.76198300  0.44062300  0.29326200  1
  C  693  1  0.71231300  0.45406800  0.28632600  1
  C  696  1  0.70994200  0.45442700  0.25943500  1
  C  697  1  0.65959200  0.46606200  0.25100000  1
  C  698  1  0.65854100  0.46347300  0.22270800  1
  C  705  1  0.75731900  0.74589000  0.59150700  1
  C  706  1  0.80656100  0.76665400  0.60094300  1
  C  708  1  0.75891100  0.79424400  0.58146300  1
  C  709  1  0.70771000  0.77472500  0.57092700  1
  C  710  1  0.70827100  0.75060000  0.57605600  1
  C  712  1  0.76012600  0.81955200  0.57865200  1
  C  713  1  0.81149400  0.86417000  0.59030400  1
  C  714  1  0.76202600  0.87397700  0.57938500  1
  C  715  1  0.71237300  0.85359100  0.56592600  1
  C  718  1  0.70997900  0.82635000  0.56558500  1
  C  719  1  0.65962800  0.80628000  0.55394800  1
  C  720  1  0.65856900  0.78057700  0.55653700  1
  C  727  1  0.25730400  0.16060400  0.73833000  1
  C  728  1  0.30653200  0.17193200  0.75910200  1
  C  730  1  0.25887700  0.21899800  0.78669000  1
  C  731  1  0.20767900  0.21001500  0.76716700  1
  C  732  1  0.20826200  0.18076500  0.74303500  1
  C  734  1  0.26007900  0.24711500  0.81200400  1
  C  735  1  0.31143300  0.28007600  0.85662700  1
  C  736  1  0.26197600  0.30080500  0.86643200  1
  C  737  1  0.21230200  0.29386600  0.84605400  1
  C  740  1  0.20993700  0.26697900  0.81879800  1
  C  741  1  0.15959100  0.25855000  0.79872500  1
  C  742  1  0.15854000  0.23026000  0.77302300  1
  C  749  1  0.25731100  0.59905300  0.85940600  1
  C  750  1  0.30656200  0.60847800  0.84807200  1
  C  752  1  0.25888000  0.58902000  0.80101000  1
  C  753  1  0.20767900  0.57848800  0.80999700  1
  C  754  1  0.20825700  0.58360600  0.83924900  1
  C  756  1  0.26008200  0.58622500  0.77289800  1
  C  757  1  0.31141900  0.59790100  0.73994500  1
  C  758  1  0.26197600  0.58696000  0.71920500  1
  C  759  1  0.21230400  0.57351900  0.72614500  1
  C  762  1  0.20992800  0.57316300  0.75303600  1
  C  763  1  0.15957900  0.56152400  0.76146800  1
  C  764  1  0.15852800  0.56410600  0.78975700  1
  C  771  1  0.25732300  0.28168900  0.42094200  1
  C  772  1  0.30655800  0.26092300  0.41150000  1
  C  774  1  0.25891900  0.23332800  0.43097800  1
  C  775  1  0.20772100  0.25285200  0.44152100  1
  C  776  1  0.20828700  0.27698100  0.43640000  1
  C  778  1  0.26013300  0.20801700  0.43378500  1
  C  779  1  0.31150300  0.16340100  0.42212900  1
  C  780  1  0.26205400  0.15359500  0.43305700  1
  C  781  1  0.21238300  0.17397700  0.44650600  1
  C  784  1  0.20999700  0.20122300  0.44685800  1
  C  785  1  0.15964800  0.22129200  0.45850100  1
  C  786  1  0.15857900  0.24699200  0.45590600  1
  H  5  1  0.65656600  0.90248000  0.29553600  1
  H  6  1  0.70070200  0.91680100  0.27754100  1
  H  9  1  0.75516500  0.96707600  0.30702800  1
  H  10  1  0.75018000  0.98685800  0.34594800  1
  H  11  1  0.81762600  0.91895200  0.28146900  1
  H  12  1  0.85531100  0.90548000  0.30220400  1
  H  15  1  0.80824500  0.96988300  0.37665200  1
  H  16  1  0.84910600  0.93646000  0.36069400  1
  H  18  1  0.68546100  0.96743400  0.37304000  1
  H  19  1  0.65056800  0.93253900  0.35475500  1
  H  21  1  0.79488800  0.88669000  0.33128600  1
  H  22  1  0.71327400  0.88559400  0.33004200  1
  H  27  1  0.65657500  0.41444600  0.11755300  1
  H  28  1  0.70068200  0.38212000  0.10324100  1
  H  31  1  0.75517900  0.36132100  0.05297200  1
  H  32  1  0.75024700  0.38046200  0.03318900  1
  H  33  1  0.81762400  0.38387400  0.10110000  1
  H  34  1  0.85533900  0.41807500  0.11457500  1
  H  37  1  0.80835800  0.42813100  0.05017300  1
  H  38  1  0.84920800  0.44558500  0.08359900  1
  H  40  1  0.68556600  0.42699100  0.05261000  1
  H  41  1  0.65066300  0.44360600  0.08750200  1
  H  43  1  0.79495800  0.46595700  0.13336400  1
  H  44  1  0.71334300  0.46582500  0.13445300  1
  H  49  1  0.65655100  0.72449600  0.60561000  1
  H  50  1  0.70068300  0.74249600  0.63792800  1
  H  53  1  0.75515000  0.71301600  0.65872000  1
  H  54  1  0.75017100  0.67409500  0.63958400  1
  H  55  1  0.81761600  0.73857000  0.63615300  1
  H  56  1  0.85530200  0.71783100  0.60194600  1
  H  59  1  0.80824400  0.64338700  0.59190800  1
  H  60  1  0.84910100  0.65934700  0.57444300  1
  H  62  1  0.68545600  0.64699700  0.59306900  1
  H  63  1  0.65056600  0.66527800  0.57645400  1
  H  65  1  0.79488000  0.68874900  0.55407400  1
  H  66  1  0.71326500  0.68999100  0.55422100  1
  H  71  1  0.15653900  0.12510300  0.71689900  1
  H  72  1  0.20063400  0.11078600  0.73491000  1
  H  75  1  0.25512000  0.06051400  0.70543700  1
  H  76  1  0.25018200  0.04073500  0.66651500  1
  H  77  1  0.31757300  0.10863700  0.73101700  1
  H  78  1  0.35530100  0.12211000  0.71029100  1
  H  81  1  0.30831500  0.05771200  0.63583100  1
  H  82  1  0.34917000  0.09113600  0.65180100  1
  H  84  1  0.18552200  0.06015800  0.63940700  1
  H  85  1  0.15062900  0.09505400  0.65768700  1
  H  87  1  0.29493900  0.14090700  0.68119900  1
  H  88  1  0.21332300  0.14200000  0.68242000  1
  H  93  1  0.15655100  0.61315400  0.89490600  1
  H  94  1  0.20067800  0.64547300  0.90922600  1
  H  97  1  0.25515100  0.66626100  0.95949600  1
  H  98  1  0.25018500  0.64712200  0.97927900  1
  H  99  1  0.31760800  0.64370000  0.91137100  1
  H  100  1  0.35530100  0.60949400  0.89789700  1
  H  103  1  0.30827500  0.59944800  0.96230100  1
  H  104  1  0.34912600  0.58198800  0.92887600  1
  H  106  1  0.18548600  0.60060400  0.95986000  1
  H  107  1  0.15058900  0.58398800  0.92496400  1
  H  109  1  0.29489000  0.56161900  0.87910900  1
  H  110  1  0.21327400  0.56176400  0.87801700  1
  H  115  1  0.15655300  0.30308700  0.40684800  1
  H  116  1  0.20067800  0.28509000  0.37452700  1
  H  119  1  0.25513400  0.31458000  0.35373900  1
  H  120  1  0.25015700  0.35350000  0.37288100  1
  H  121  1  0.31760400  0.28901600  0.37629700  1
  H  122  1  0.35529600  0.30974800  0.41050300  1
  H  125  1  0.30823600  0.38420000  0.42055800  1
  H  126  1  0.34910100  0.36823700  0.43801600  1
  H  128  1  0.18544600  0.38059000  0.41939900  1
  H  129  1  0.15056400  0.36230400  0.43601000  1
  H  131  1  0.29488600  0.33883100  0.45838100  1
  H  132  1  0.21327200  0.33758700  0.45823500  1
  H  137  1  0.36073400  0.59510600  0.68855500  1
  H  138  1  0.32141200  0.62913800  0.70961400  1
  H  141  1  0.25704900  0.65045400  0.68601100  1
  H  142  1  0.25484900  0.63454200  0.64802500  1
  H  143  1  0.19937200  0.62942400  0.71237000  1
  H  144  1  0.15841600  0.59605300  0.69277500  1
  H  147  1  0.19195500  0.58130200  0.61663000  1
  H  148  1  0.15570600  0.56750700  0.63706800  1
  H  150  1  0.31410400  0.58225100  0.61455100  1
  H  151  1  0.35725000  0.56792400  0.63288700  1
  H  153  1  0.21974600  0.54660200  0.66326500  1
  H  154  1  0.30142300  0.54714400  0.66251700  1
  H  159  1  0.36073400  0.33145000  0.90523200  1
  H  160  1  0.32140200  0.31039500  0.91820500  1
  H  163  1  0.25703500  0.33399900  0.96312000  1
  H  164  1  0.25484200  0.37198400  0.98519500  1
  H  165  1  0.19936000  0.30764400  0.91573200  1
  H  166  1  0.15841200  0.32723700  0.90195500  1
  H  169  1  0.19196200  0.40338600  0.96334400  1
  H  170  1  0.15571500  0.38294400  0.92911200  1
  H  172  1  0.31411100  0.40545500  0.96637600  1
  H  173  1  0.35725900  0.38712000  0.93371700  1
  H  175  1  0.21976000  0.35674500  0.88201300  1
  H  176  1  0.30143600  0.35748900  0.88330400  1
  H  181  1  0.36079600  0.11478200  0.42487200  1
  H  182  1  0.32142600  0.10181600  0.39085500  1
  H  185  1  0.25704000  0.05690400  0.36955800  1
  H  186  1  0.25486300  0.03483100  0.38547000  1
  H  187  1  0.19939000  0.10430100  0.39060400  1
  H  188  1  0.15847400  0.11808100  0.42398400  1
  H  191  1  0.19204100  0.05668400  0.43873000  1
  H  192  1  0.15580800  0.09092200  0.45253400  1
  H  194  1  0.31419200  0.05364000  0.43774200  1
  H  195  1  0.35735200  0.08629700  0.45205800  1
  H  197  1  0.21987200  0.13801600  0.47342100  1
  H  198  1  0.30154800  0.13671300  0.47285300  1
  H  203  1  0.86073200  0.43247200  0.32391100  1
  H  204  1  0.82140800  0.39844100  0.30285100  1
  H  207  1  0.75704000  0.37712300  0.32645200  1
  H  208  1  0.75483600  0.39303500  0.36443800  1
  H  209  1  0.69937100  0.39815500  0.30009200  1
  H  210  1  0.65841200  0.43152400  0.31968600  1
  H  213  1  0.69194400  0.44627800  0.39583500  1
  H  214  1  0.65570200  0.46007100  0.37539400  1
  H  216  1  0.81409200  0.44532300  0.39791400  1
  H  217  1  0.85724200  0.45965300  0.37958200  1
  H  219  1  0.71974600  0.48097700  0.34920200  1
  H  220  1  0.80142300  0.48043300  0.34994900  1
  H  225  1  0.86075100  0.69615300  0.10722400  1
  H  226  1  0.82138400  0.71720300  0.09425400  1
  H  229  1  0.75699400  0.69358500  0.04934300  1
  H  230  1  0.75482300  0.65559900  0.02727100  1
  H  231  1  0.69934100  0.71993400  0.09673800  1
  H  232  1  0.65843000  0.70033300  0.11052100  1
  H  235  1  0.69200900  0.62419000  0.04913100  1
  H  236  1  0.65577600  0.64462700  0.08336700  1
  H  238  1  0.81415900  0.62214000  0.04608500  1
  H  239  1  0.85732000  0.64048600  0.07874200  1
  H  241  1  0.71983600  0.67084000  0.13046000  1
  H  242  1  0.80151100  0.67010800  0.12916100  1
  H  247  1  0.86075400  0.91279900  0.58757900  1
  H  248  1  0.82138500  0.92575500  0.62159500  1
  H  251  1  0.75698100  0.97066100  0.64290200  1
  H  252  1  0.75479900  0.99274400  0.62699900  1
  H  253  1  0.69934600  0.92326200  0.62184200  1
  H  254  1  0.65843100  0.90948700  0.58846300  1
  H  257  1  0.69198500  0.97089500  0.57373200  1
  H  258  1  0.65576200  0.93665500  0.55992200  1
  H  260  1  0.81412700  0.97395000  0.57472700  1
  H  261  1  0.85730200  0.94129500  0.56040700  1
  H  263  1  0.71983600  0.88956500  0.53903000  1
  H  264  1  0.80151100  0.89087200  0.53959800  1
  H  271  1  0.75046500  0.97953700  0.54292900  1
  H  276  1  0.76021000  0.88657400  0.49476600  1
  H  281  1  0.74136800  0.97682100  0.41407900  1
  H  282  1  0.75334100  0.88404100  0.37224200  1
  H  284  1  0.77987900  0.01945700  0.46939000  1
  H  286  1  0.78459100  0.02058600  0.52736000  1
  H  293  1  0.75050500  0.58475800  0.04050100  1
  H  298  1  0.76023000  0.62957000  0.13346500  1
  H  303  1  0.74152000  0.45862900  0.04322900  1
  H  304  1  0.75344700  0.50957300  0.13600700  1
  H  306  1  0.78004000  0.47130500  0.00058900  1
  H  308  1  0.78468600  0.52814800  0.99945600  1
  H  315  1  0.75037000  0.47710100  0.43528500  1
  H  320  1  0.76010900  0.52525800  0.39047900  1
  H  325  1  0.74136200  0.60595900  0.56141800  1
  H  326  1  0.75333100  0.64779000  0.51047200  1
  H  328  1  0.77986400  0.55064200  0.54874100  1
  H  330  1  0.78452000  0.49267000  0.49189900  1
  H  337  1  0.25052100  0.04805300  0.46953800  1
  H  342  1  0.26027000  0.14101500  0.51769100  1
  H  347  1  0.24148700  0.05077500  0.59839000  1
  H  348  1  0.25346100  0.14355200  0.64022600  1
  H  350  1  0.28001800  0.00813900  0.54307900  1
  H  352  1  0.28469800  0.00701100  0.48510700  1
  H  359  1  0.25041000  0.44282900  0.97197000  1
  H  364  1  0.26012100  0.39801900  0.87900600  1
  H  369  1  0.24141800  0.56896000  0.96924400  1
  H  370  1  0.25334800  0.51801300  0.87646500  1
  H  372  1  0.27991800  0.55628000  0.01187900  1
  H  374  1  0.28457100  0.49943900  0.01301200  1
  H  381  1  0.25038000  0.55047700  0.57718100  1
  H  386  1  0.26010700  0.50231900  0.62198700  1
  H  391  1  0.24135500  0.42162600  0.45104800  1
  H  392  1  0.25332000  0.37978800  0.50198900  1
  H  394  1  0.27984800  0.47694300  0.46372600  1
  H  396  1  0.28451000  0.53491300  0.52056900  1
  H  403  1  0.93128100  0.93265000  0.33052900  1
  H  408  1  0.83909800  0.00548300  0.33436900  1
  H  413  1  0.17129800  0.01759300  0.39327500  1
  H  414  1  0.08498900  0.08598900  0.38620200  1
  H  416  1  0.13352100  0.96699700  0.38864500  1
  H  418  1  0.02781400  0.92907500  0.36013400  1
  H  425  1  0.93135600  0.41922900  0.08740900  1
  H  430  1  0.83913100  0.35020000  0.01459500  1
  H  435  1  0.17127400  0.39702300  0.00243900  1
  H  436  1  0.08496200  0.32154100  0.93406100  1
  H  438  1  0.13353300  0.44298100  0.05305400  1
  H  440  1  0.02789200  0.45238300  0.09099500  1
  H  447  1  0.93129000  0.68951900  0.60081200  1
  H  452  1  0.83907800  0.68569500  0.66981700  1
  H  457  1  0.17127000  0.62676800  0.62299900  1
  H  458  1  0.08495200  0.63383500  0.69846600  1
  H  460  1  0.13350300  0.63141200  0.57704500  1
  H  462  1  0.02777600  0.65989500  0.56762400  1
  H  469  1  0.43127600  0.09493800  0.68199100  1
  H  474  1  0.33905000  0.02210600  0.67813000  1
  H  479  1  0.67124000  0.00997600  0.61918400  1
  H  480  1  0.58493900  0.94157900  0.62625600  1
  H  482  1  0.63348500  0.06059000  0.62384500  1
  H  484  1  0.52778300  0.09851200  0.65237400  1
  H  491  1  0.43128800  0.60835000  0.92506900  1
  H  496  1  0.33908000  0.67733800  0.99790200  1
  H  501  1  0.67126300  0.63054800  0.01003700  1
  H  502  1  0.58494500  0.70602100  0.07842200  1
  H  504  1  0.63350800  0.58458500  0.95943300  1
  H  506  1  0.52782200  0.57517500  0.92149900  1
  H  513  1  0.43128000  0.33808900  0.41167700  1
  H  518  1  0.33908000  0.34186300  0.34263500  1
  H  523  1  0.67125500  0.40081500  0.38946400  1
  H  524  1  0.58496200  0.39372300  0.31398400  1
  H  526  1  0.63349300  0.39616800  0.43542300  1
  H  528  1  0.52781800  0.36765100  0.44483300  1
  H  535  1  0.07413400  0.09997100  0.69095200  1
  H  540  1  0.16587200  0.02531400  0.68349300  1
  H  545  1  0.83770200  0.01337200  0.62159500  1
  H  546  1  0.92880400  0.94453200  0.62637400  1
  H  548  1  0.87498500  0.06615100  0.62996100  1
  H  550  1  0.97764500  0.10471200  0.66178200  1
  H  557  1  0.07419900  0.61234000  0.92003900  1
  H  562  1  0.16591200  0.67952500  0.99467600  1
  H  567  1  0.83774000  0.62957100  0.00665600  1
  H  568  1  0.92881100  0.70321000  0.07548700  1
  H  570  1  0.87503400  0.58515200  0.95387400  1
  H  572  1  0.97769700  0.57842500  0.91530900  1
  H  579  1  0.07415700  0.32901800  0.40765600  1
  H  584  1  0.16586500  0.33657300  0.34052700  1
  H  589  1  0.83774000  0.39846500  0.39047900  1
  H  590  1  0.92883000  0.39369400  0.31686100  1
  H  592  1  0.87502300  0.39007100  0.43488600  1
  H  594  1  0.97763600  0.35817700  0.44157800  1
  H  601  1  0.57414400  0.92759900  0.32149000  1
  H  606  1  0.66589400  0.00225500  0.32894200  1
  H  611  1  0.33778300  0.01421600  0.39088500  1
  H  612  1  0.42884600  0.08304600  0.38607400  1
  H  614  1  0.37508400  0.96142600  0.38251300  1
  H  616  1  0.47765200  0.92282900  0.35061600  1
  H  623  1  0.57417100  0.41524200  0.09240500  1
  H  628  1  0.66592100  0.34808200  0.01774600  1
  H  633  1  0.33774200  0.39802800  0.00580500  1
  H  634  1  0.42883900  0.32441000  0.93696100  1
  H  636  1  0.37504600  0.44244900  0.05858200  1
  H  638  1  0.47771900  0.44917700  0.09714500  1
  H  645  1  0.57418100  0.69856400  0.60481800  1
  H  650  1  0.66589400  0.69106800  0.67196800  1
  H  655  1  0.33775800  0.62910200  0.62197900  1
  H  656  1  0.42882800  0.63389000  0.69561000  1
  H  658  1  0.37507700  0.63747500  0.57756300  1
  H  660  1  0.47773300  0.66935200  0.57087000  1
  H  667  1  0.67142200  0.85365100  0.28359800  1
  H  672  1  0.84395800  0.86798600  0.25434300  1
  H  677  1  0.67585300  0.71944700  0.16086700  1
  H  678  1  0.85006200  0.74485600  0.14356500  1
  H  680  1  0.61960200  0.73846800  0.21661500  1
  H  682  1  0.61742200  0.80003400  0.27257700  1
  H  689  1  0.67142600  0.45130800  0.16638800  1
  H  694  1  0.84396800  0.40772700  0.15207000  1
  H  699  1  0.67580700  0.46277700  0.30059000  1
  H  700  1  0.85003900  0.42008200  0.27519000  1
  H  702  1  0.61955200  0.49950400  0.28156900  1
  H  704  1  0.61739100  0.49390600  0.22001300  1
  H  711  1  0.67141600  0.73643400  0.56871800  1
  H  716  1  0.84396200  0.76568500  0.61229800  1
  H  721  1  0.67584900  0.85915100  0.55723000  1
  H  722  1  0.85006700  0.87645200  0.59994000  1
  H  724  1  0.61961700  0.80338100  0.52048800  1
  H  726  1  0.61740700  0.74744300  0.52612100  1
  H  733  1  0.17141100  0.17393800  0.72886600  1
  H  738  1  0.34393000  0.15960700  0.75813600  1
  H  743  1  0.17581400  0.30814100  0.85160000  1
  H  744  1  0.35003100  0.28272900  0.86889900  1
  H  746  1  0.11955000  0.28912200  0.79585600  1
  H  748  1  0.11738400  0.22755300  0.73989200  1
  H  755  1  0.17139700  0.57627300  0.84607900  1
  H  760  1  0.34394400  0.61985000  0.86040200  1
  H  765  1  0.17580700  0.56480300  0.71187500  1
  H  766  1  0.35005700  0.60747700  0.73726500  1
  H  768  1  0.11953300  0.52808200  0.73089800  1
  H  770  1  0.11736100  0.53368800  0.79246600  1
  H  777  1  0.17141800  0.29114200  0.44373100  1
  H  782  1  0.34395100  0.26189000  0.40013800  1
  H  787  1  0.17589200  0.16842500  0.45522500  1
  H  788  1  0.35008000  0.15111900  0.41249000  1
  H  790  1  0.11964000  0.22416900  0.49195000  1
  H  792  1  0.11744000  0.28012200  0.48634300  1
  N  267  1  0.75511900  0.90771900  0.47118200  1
  N  277  1  0.75142300  0.90659600  0.41702200  1
  N  289  1  0.75518500  0.58483900  0.11232400  1
  N  299  1  0.75153700  0.53180000  0.11345200  1
  N  311  1  0.75504100  0.54884600  0.43520900  1
  N  321  1  0.75140100  0.60300900  0.48824600  1
  N  333  1  0.25520800  0.11987300  0.54128000  1
  N  343  1  0.25154500  0.12099900  0.59544500  1
  N  355  1  0.25505800  0.44275100  0.90014800  1
  N  365  1  0.25141500  0.49578700  0.89902100  1
  N  377  1  0.25503500  0.47873200  0.57725700  1
  N  387  1  0.25138400  0.42456800  0.52421600  1
  N  399  1  0.93113800  0.01043200  0.34460500  1
  N  409  1  0.03907100  0.04645700  0.36859700  1
  N  421  1  0.93117300  0.35549400  0.00963000  1
  N  431  1  0.03908200  0.34346200  0.97360300  1
  N  443  1  0.93111700  0.67542400  0.66450800  1
  N  453  1  0.03906600  0.65146300  0.67655300  1
  N  465  1  0.43109900  0.01712900  0.66785700  1
  N  475  1  0.53903500  0.98111400  0.64387300  1
  N  487  1  0.43112300  0.67205500  0.00285400  1
  N  497  1  0.53903900  0.68409100  0.03888600  1
  N  509  1  0.43112500  0.35212400  0.34793600  1
  N  519  1  0.53906300  0.37610600  0.33590400  1
  N  531  1  0.07408000  0.02101500  0.67351700  1
  N  541  1  0.97049300  0.98484000  0.64663800  1
  N  553  1  0.07409700  0.67386600  0.99900100  1
  N  563  1  0.97050700  0.68315900  0.03518100  1
  N  575  1  0.07408300  0.34650000  0.34617500  1
  N  585  1  0.97053100  0.37343200  0.33690500  1
  N  597  1  0.57410200  0.00655400  0.33890500  1
  N  607  1  0.47053700  0.04273700  0.36581100  1
  N  619  1  0.57414500  0.35376100  0.01343900  1
  N  629  1  0.47054600  0.34446100  0.97726300  1
  N  641  1  0.57409700  0.68106100  0.66629300  1
  N  651  1  0.47052800  0.65415200  0.67556700  1
  N  663  1  0.80565100  0.82773700  0.23055100  1
  N  673  1  0.80854700  0.77305900  0.18168100  1
  N  685  1  0.80564200  0.42418000  0.19231400  1
  N  695  1  0.80854300  0.43001200  0.24700000  1
  N  707  1  0.80565100  0.78947600  0.59584200  1
  N  717  1  0.80857500  0.83832800  0.59000400  1
  N  729  1  0.30561600  0.19985300  0.78192600  1
  N  739  1  0.30852600  0.25453700  0.83078100  1
  N  751  1  0.30563200  0.60339400  0.82015600  1
  N  761  1  0.30853000  0.59757700  0.76547400  1
  N  773  1  0.30565100  0.23809700  0.41659400  1
  N  783  1  0.30857900  0.18924100  0.42242600  1
  O  283  1  0.73730700  0.01264800  0.46933800  1
  O  285  1  0.74157100  0.01375600  0.52181300  1
  O  305  1  0.73746400  0.47805800  0.00739800  1
  O  307  1  0.74166800  0.52942300  0.00628700  1
  O  327  1  0.73728800  0.55069700  0.54198700  1
  O  329  1  0.74150200  0.49822100  0.49062100  1
  O  349  1  0.23744200  0.01494800  0.54313100  1
  O  351  1  0.24167800  0.01383600  0.49065400  1
  O  371  1  0.23733800  0.54953000  0.00507400  1
  O  373  1  0.24155200  0.49816600  0.00618500  1
  O  393  1  0.23727600  0.47688500  0.47048000  1
  O  395  1  0.24149200  0.52936000  0.52184600  1
  O  415  1  0.14084100  0.96464100  0.36901200  1
  O  417  1  0.04194300  0.92929200  0.34235200  1
  O  437  1  0.14086800  0.42570100  0.05540300  1
  O  439  1  0.04200600  0.43437700  0.09076700  1
  O  459  1  0.14082900  0.65104600  0.59432100  1
  O  461  1  0.04190800  0.67768400  0.58561600  1
  O  481  1  0.64080900  0.06293700  0.64347600  1
  O  483  1  0.54192200  0.09828700  0.67015000  1
  O  503  1  0.64083300  0.60186300  0.95707800  1
  O  505  1  0.54195200  0.59317600  0.92172000  1
  O  525  1  0.64081700  0.37653600  0.41814400  1
  O  527  1  0.54192500  0.34986900  0.42682700  1
  O  547  1  0.86596700  0.06739500  0.64899200  1
  O  549  1  0.96259500  0.10343400  0.67887200  1
  O  569  1  0.86600800  0.60293900  0.95263300  1
  O  571  1  0.96262300  0.59679100  0.91659100  1
  O  591  1  0.86599300  0.37105100  0.41709200  1
  O  593  1  0.96256700  0.34110900  0.42319900  1
  O  613  1  0.36604500  0.96019200  0.36349000  1
  O  615  1  0.46260800  0.92414000  0.33354400  1
  O  635  1  0.36603100  0.42466100  0.05982400  1
  O  637  1  0.46265400  0.43080900  0.09586200  1
  O  657  1  0.36603800  0.65650000  0.59535400  1
  O  659  1  0.46262800  0.68642500  0.58923700  1
  O  679  1  0.60995000  0.75083400  0.20786200  1
  O  681  1  0.60793100  0.80530400  0.25739400  1
  O  701  1  0.60990900  0.47838300  0.26919900  1
  O  703  1  0.60791300  0.47344600  0.21472600  1
  O  723  1  0.60996900  0.81215500  0.54161000  1
  O  725  1  0.60792300  0.76263400  0.54657200  1
  O  745  1  0.10991000  0.27675000  0.80460600  1
  O  747  1  0.10790300  0.22228100  0.75507400  1
  O  767  1  0.10989800  0.54920400  0.74326700  1
  O  769  1  0.10788400  0.55414200  0.79773700  1
  O  789  1  0.10998200  0.21541700  0.47083200  1
  O  791  1  0.10795200  0.26494800  0.46588600  1
