# generated using pymatgen
data_H40C53(N2O)4
_symmetry_space_group_name_H-M   'P 1'
_cell_length_a   26.41930000
_cell_length_b   44.76750000
_cell_length_c   48.59840000
_cell_angle_alpha   90.00000000
_cell_angle_beta   90.00000000
_cell_angle_gamma   90.00000000
_symmetry_Int_Tables_number   1
_chemical_formula_structural   H40C53(N2O)4
_chemical_formula_sum   'H320 C424 N64 O32'
_cell_volume   57478.59185803
_cell_formula_units_Z   8
loop_
 _symmetry_equiv_pos_site_id
 _symmetry_equiv_pos_as_xyz
  1  'x, y, z'
loop_
 _atom_site_type_symbol
 _atom_site_label
 _atom_site_symmetry_multiplicity
 _atom_site_fract_x
 _atom_site_fract_y
 _atom_site_fract_z
 _atom_site_occupancy
  H  25  1  0.86904600  0.81959200  0.87056800  1
  H  26  1  0.92828800  0.84479100  0.84077200  1
  H  27  1  0.98260500  0.88091200  0.81247300  1
  H  28  1  0.02330000  0.92216900  0.78974800  1
  H  29  1  0.91229800  0.98117400  0.82150300  1
  H  30  1  0.79253100  0.90158200  0.88441900  1
  H  31  1  0.80152600  0.92534400  0.80176800  1
  H  32  1  0.69199100  0.99168600  0.81970700  1
  H  33  1  0.73586300  0.00399600  0.86152100  1
  H  34  1  0.93405800  0.93966500  0.89313500  1
  H  35  1  0.79510800  0.01070400  0.90176400  1
  H  36  1  0.86080000  0.01013900  0.93569600  1
  H  70  1  0.63279800  0.68654500  0.84755500  1
  H  71  1  0.56974200  0.65658300  0.82478700  1
  H  72  1  0.51151900  0.61623500  0.80526900  1
  H  73  1  0.47038700  0.57179200  0.78886800  1
  H  74  1  0.58295600  0.51857300  0.82704600  1
  H  75  1  0.70551000  0.60797200  0.87582100  1
  H  76  1  0.69059700  0.57465800  0.79823200  1
  H  77  1  0.80872700  0.51559500  0.82096300  1
  H  78  1  0.76826100  0.50668900  0.86445800  1
  H  79  1  0.56336000  0.56537200  0.89279200  1
  H  80  1  0.71140700  0.50180600  0.90551100  1
  H  81  1  0.64621400  0.50223700  0.93970500  1
  H  115  1  0.36836600  0.18081400  0.62985600  1
  H  116  1  0.42772500  0.15559500  0.65956900  1
  H  117  1  0.48219200  0.11943900  0.68778000  1
  H  118  1  0.52295800  0.07816200  0.71043700  1
  H  119  1  0.41214100  0.01913900  0.67852300  1
  H  120  1  0.29219100  0.09875900  0.61576500  1
  H  121  1  0.30131300  0.07490000  0.69832200  1
  H  122  1  0.19178300  0.00857800  0.68029800  1
  H  123  1  0.23571300  0.99630500  0.63847800  1
  H  124  1  0.43390600  0.06074900  0.60698700  1
  H  125  1  0.29517000  0.98957500  0.59827900  1
  H  126  1  0.36095100  0.99019400  0.56439100  1
  H  160  1  0.13273100  0.31389700  0.65259200  1
  H  161  1  0.06961800  0.34379400  0.67539100  1
  H  162  1  0.01128200  0.38410200  0.69492800  1
  H  163  1  0.97008400  0.42851200  0.71137100  1
  H  164  1  0.08278300  0.48181400  0.67340700  1
  H  165  1  0.20547400  0.39255700  0.62455000  1
  H  166  1  0.19047700  0.42558300  0.70215300  1
  H  167  1  0.30826200  0.48504800  0.67978400  1
  H  168  1  0.26785300  0.49408400  0.63629100  1
  H  169  1  0.06352100  0.43497400  0.60748300  1
  H  170  1  0.21129500  0.49884000  0.59509200  1
  H  171  1  0.14633100  0.49829900  0.56077000  1
  H  205  1  0.13743600  0.17976400  0.12849700  1
  H  206  1  0.07700700  0.15513000  0.15797100  1
  H  207  1  0.02144200  0.11935900  0.18617500  1
  H  208  1  0.97985500  0.07827800  0.20873800  1
  H  209  1  0.09538800  0.01968200  0.18145500  1
  H  210  1  0.21779400  0.09826600  0.11937500  1
  H  211  1  0.20383900  0.07760500  0.20228900  1
  H  212  1  0.31161200  0.00866700  0.19073300  1
  H  213  1  0.27160400  0.99480700  0.14819700  1
  H  214  1  0.07879700  0.05937300  0.10857600  1
  H  215  1  0.21696500  0.98721400  0.10622000  1
  H  216  1  0.15422300  0.98661500  0.07061000  1
  H  250  1  0.36024300  0.31407800  0.14835900  1
  H  251  1  0.42478000  0.34274400  0.17144900  1
  H  252  1  0.48458500  0.38246300  0.19183400  1
  H  253  1  0.52722000  0.42629600  0.20862100  1
  H  254  1  0.41057400  0.48078200  0.17601500  1
  H  255  1  0.28404900  0.39411200  0.12715900  1
  H  256  1  0.30537100  0.42322400  0.20571500  1
  H  257  1  0.19038300  0.48699400  0.19030500  1
  H  258  1  0.22626900  0.49742300  0.14591300  1
  H  259  1  0.42330300  0.43599700  0.10811900  1
  H  260  1  0.27742500  0.50248700  0.10273700  1
  H  261  1  0.33870200  0.50258100  0.06643100  1
  H  295  1  0.63835600  0.82062700  0.37217100  1
  H  296  1  0.57769100  0.84515200  0.34275900  1
  H  297  1  0.52178500  0.88084600  0.31462800  1
  H  298  1  0.47995900  0.92186100  0.29209000  1
  H  299  1  0.59534500  0.98062600  0.31924600  1
  H  300  1  0.71824600  0.90229000  0.38125800  1
  H  301  1  0.70406500  0.92276900  0.29843200  1
  H  302  1  0.81123100  0.99209800  0.30965100  1
  H  303  1  0.77122900  0.00598400  0.35219900  1
  H  304  1  0.57892900  0.94100800  0.39203400  1
  H  305  1  0.71641000  0.01363500  0.39417600  1
  H  306  1  0.65345400  0.01426700  0.42970200  1
  H  340  1  0.86045200  0.68627500  0.35219700  1
  H  341  1  0.92487800  0.65767600  0.32894300  1
  H  342  1  0.98461200  0.61800400  0.30839100  1
  H  343  1  0.02729300  0.57420200  0.29156200  1
  H  344  1  0.91088700  0.51962500  0.32428900  1
  H  345  1  0.78446300  0.60617200  0.37338100  1
  H  346  1  0.80531800  0.57713100  0.29476300  1
  H  347  1  0.68988900  0.51376800  0.31064200  1
  H  348  1  0.72622300  0.50324500  0.35490100  1
  H  349  1  0.92403200  0.56425300  0.39208100  1
  H  350  1  0.77800900  0.49790400  0.39781400  1
  H  351  1  0.83966300  0.49768700  0.43393200  1
  H  371  1  0.11769300  0.01999000  0.80312300  1
  H  372  1  0.16880700  0.05095200  0.77401500  1
  H  375  1  0.06777500  0.02161200  0.64729300  1
  H  376  1  0.01137700  0.00104500  0.64786300  1
  H  377  1  0.11946800  0.97525300  0.64716100  1
  H  378  1  0.07678000  0.97616400  0.61905200  1
  H  379  1  0.06369500  0.95315600  0.64782000  1
  H  382  1  0.98905600  0.93915700  0.70230900  1
  H  383  1  0.98154900  0.95843400  0.67115600  1
  H  384  1  0.92036900  0.99373100  0.69361600  1
  H  385  1  0.92571600  0.97299100  0.72468900  1
  H  386  1  0.90007500  0.95601300  0.69487300  1
  H  388  1  0.15172500  0.06076300  0.70216300  1
  H  390  1  0.06804000  0.96945100  0.79954200  1
  H  401  1  0.37389600  0.47573600  0.80771000  1
  H  402  1  0.32223000  0.44653600  0.77730600  1
  H  405  1  0.43130900  0.47652400  0.65254600  1
  H  406  1  0.48809300  0.49664400  0.65420500  1
  H  407  1  0.38061100  0.52327200  0.65298700  1
  H  408  1  0.42437800  0.52291300  0.62536200  1
  H  409  1  0.43680500  0.54491300  0.65488000  1
  H  412  1  0.51237100  0.55582300  0.71102800  1
  H  413  1  0.51822700  0.53826800  0.67893200  1
  H  414  1  0.57701300  0.50021800  0.69926000  1
  H  415  1  0.57311500  0.51890100  0.73148300  1
  H  416  1  0.59996200  0.53723800  0.70267600  1
  H  418  1  0.34316500  0.43676800  0.70591900  1
  H  420  1  0.42608200  0.52640400  0.80427400  1
  H  431  1  0.61776800  0.98050900  0.69699200  1
  H  432  1  0.66901500  0.94966800  0.72612500  1
  H  435  1  0.56723600  0.97866000  0.85276900  1
  H  436  1  0.51090600  0.99928900  0.85217800  1
  H  437  1  0.61907300  0.02496500  0.85294800  1
  H  438  1  0.57631300  0.02410500  0.88102600  1
  H  439  1  0.56337200  0.04712100  0.85224300  1
  H  442  1  0.48822200  0.06098600  0.79757500  1
  H  443  1  0.48116700  0.04189900  0.82885400  1
  H  444  1  0.42010900  0.00625700  0.80677400  1
  H  445  1  0.42504800  0.02675200  0.77554200  1
  H  446  1  0.39946900  0.04390000  0.80529100  1
  H  448  1  0.65183900  0.93984200  0.79800900  1
  H  450  1  0.56781200  0.03092200  0.70056400  1
  H  461  1  0.87400700  0.52490300  0.69270000  1
  H  462  1  0.82259000  0.55420100  0.72316000  1
  H  465  1  0.93093100  0.52334800  0.84790200  1
  H  466  1  0.98774500  0.50325600  0.84619700  1
  H  467  1  0.88028600  0.47658700  0.84732700  1
  H  468  1  0.92402200  0.47688800  0.87496700  1
  H  469  1  0.93650000  0.45497100  0.84540600  1
  H  472  1  0.01150200  0.44401900  0.78936800  1
  H  473  1  0.01784200  0.46167200  0.82139200  1
  H  474  1  0.07681400  0.49944300  0.80076700  1
  H  475  1  0.07246900  0.48061000  0.76863500  1
  H  476  1  0.09936600  0.46232400  0.79745500  1
  H  478  1  0.84359400  0.56356500  0.79455900  1
  H  480  1  0.92585000  0.47397100  0.69606200  1
  H  491  1  0.88942600  0.98011800  0.19293500  1
  H  492  1  0.83727000  0.94731900  0.21973600  1
  H  495  1  0.92748300  0.97222600  0.34961100  1
  H  496  1  0.98352700  0.99309300  0.35103700  1
  H  497  1  0.87507300  0.01834100  0.35013500  1
  H  498  1  0.91534700  0.01629300  0.37921900  1
  H  499  1  0.93047000  0.04066600  0.35173600  1
  H  502  1  0.00608900  0.05824300  0.29993000  1
  H  503  1  0.01369300  0.03713000  0.33006500  1
  H  504  1  0.07807100  0.00480900  0.30646900  1
  H  505  1  0.07268400  0.02754900  0.27661000  1
  H  506  1  0.09583400  0.04297100  0.30771000  1
  H  508  1  0.84920100  0.93419900  0.29122800  1
  H  510  1  0.93743400  0.03047800  0.19888600  1
  H  521  1  0.62086000  0.52257600  0.18828500  1
  H  522  1  0.67353800  0.55409200  0.21614300  1
  H  525  1  0.57448500  0.53037100  0.34435800  1
  H  526  1  0.51731800  0.51053100  0.34480400  1
  H  527  1  0.62441300  0.48330200  0.34496900  1
  H  528  1  0.58294100  0.48562900  0.37352900  1
  H  529  1  0.56781500  0.46198700  0.34551000  1
  H  532  1  0.49269200  0.44681100  0.29237800  1
  H  533  1  0.48569700  0.46738200  0.32286900  1
  H  534  1  0.42446200  0.50185300  0.29946700  1
  H  535  1  0.42925700  0.47987500  0.26909600  1
  H  536  1  0.40393100  0.46415400  0.29956400  1
  H  538  1  0.65696600  0.56811500  0.28706300  1
  H  540  1  0.56978700  0.47241600  0.19438600  1
  H  551  1  0.38919600  0.01995000  0.30777200  1
  H  552  1  0.33720000  0.05283100  0.28096700  1
  H  555  1  0.42803900  0.02819200  0.15116800  1
  H  556  1  0.48403200  0.00727300  0.14978100  1
  H  557  1  0.37550100  0.98213300  0.15046200  1
  H  558  1  0.41593400  0.98420900  0.12144700  1
  H  559  1  0.43084000  0.95975600  0.14890500  1
  H  562  1  0.50620900  0.94199700  0.20079900  1
  H  563  1  0.51398000  0.96316100  0.17071000  1
  H  564  1  0.57831900  0.99539300  0.19443500  1
  H  565  1  0.57275900  0.97260300  0.22425300  1
  H  566  1  0.59601500  0.95722100  0.19315900  1
  H  568  1  0.34949800  0.06606400  0.20946200  1
  H  570  1  0.43735800  0.96963600  0.30184400  1
  H  581  1  0.12114900  0.47802800  0.31217100  1
  H  582  1  0.17394400  0.44644200  0.28444600  1
  H  585  1  0.07518600  0.46964700  0.15608400  1
  H  586  1  0.01788700  0.48935300  0.15555900  1
  H  587  1  0.12479800  0.51683300  0.15536000  1
  H  588  1  0.08340400  0.51428800  0.12677800  1
  H  589  1  0.06805900  0.53800900  0.15470500  1
  H  592  1  0.99319900  0.55334600  0.20767000  1
  H  593  1  0.98600200  0.53253400  0.17733200  1
  H  594  1  0.92482100  0.49829900  0.20107300  1
  H  595  1  0.92979000  0.52054700  0.23126700  1
  H  596  1  0.90436200  0.53600900  0.20071300  1
  H  598  1  0.15752000  0.43214800  0.21362900  1
  H  600  1  0.07000800  0.52815800  0.30585600  1
  H  611  1  0.96221000  0.01192200  0.04305800  1
  H  612  1  0.92085400  0.01333300  0.99901900  1
  H  615  1  0.11104700  0.96243100  0.91424500  1
  H  616  1  0.16641100  0.95169000  0.93145300  1
  H  617  1  0.19438700  0.00617600  0.93197300  1
  H  618  1  0.13806500  0.01566100  0.91407400  1
  H  619  1  0.18401200  0.99249400  0.89825200  1
  H  622  1  0.20693100  0.98177100  0.00327700  1
  H  623  1  0.21496300  0.97063200  0.96902200  1
  H  624  1  0.17686600  0.93022100  0.01559200  1
  H  625  1  0.23786300  0.92954400  0.00043100  1
  H  626  1  0.18428900  0.91910900  0.98069400  1
  H  628  1  0.94393700  0.01899200  0.94686700  1
  H  630  1  0.07117400  0.97761400  0.05839600  1
  H  641  1  0.53457100  0.48500400  0.04236800  1
  H  642  1  0.57994300  0.48925000  0.99972000  1
  H  645  1  0.39434000  0.54041200  0.91305000  1
  H  646  1  0.33942900  0.55251500  0.92992500  1
  H  647  1  0.30600300  0.49899600  0.92800700  1
  H  648  1  0.36246200  0.48830300  0.91087600  1
  H  649  1  0.31987100  0.51356000  0.89500100  1
  H  652  1  0.28993500  0.50901400  0.99308500  1
  H  653  1  0.28710400  0.53376700  0.96512100  1
  H  654  1  0.31321700  0.55138200  0.02426500  1
  H  655  1  0.25625500  0.55897500  0.00639200  1
  H  656  1  0.31341000  0.57614300  0.99565300  1
  H  658  1  0.56310300  0.48781400  0.94733500  1
  H  660  1  0.42136600  0.51598400  0.05645100  1
  H  671  1  0.46061000  0.98965000  0.45701500  1
  H  672  1  0.41996500  0.98803000  0.50125300  1
  H  675  1  0.61283200  0.03657600  0.58550700  1
  H  676  1  0.66830500  0.04677500  0.56812400  1
  H  677  1  0.69440500  0.99199600  0.56712400  1
  H  678  1  0.63804500  0.98302400  0.58521100  1
  H  679  1  0.68499600  0.00552400  0.60098100  1
  H  682  1  0.70653200  0.01748100  0.49564200  1
  H  683  1  0.71562300  0.02752700  0.53010600  1
  H  684  1  0.67773700  0.06963800  0.48476300  1
  H  685  1  0.73908100  0.06926700  0.49951700  1
  H  686  1  0.68627300  0.07970300  0.51985500  1
  H  688  1  0.44420100  0.98144200  0.55336600  1
  H  690  1  0.56992400  0.02314400  0.44136900  1
  H  701  1  0.03594600  0.51464600  0.45774200  1
  H  702  1  0.08088300  0.51049100  0.50054600  1
  H  705  1  0.89377800  0.46084100  0.58701300  1
  H  706  1  0.83879500  0.44897100  0.57007100  1
  H  707  1  0.80626800  0.50269500  0.57165700  1
  H  708  1  0.86277000  0.51314700  0.58887400  1
  H  709  1  0.81962500  0.48822900  0.60476300  1
  H  712  1  0.79056000  0.49238000  0.50657300  1
  H  713  1  0.78706300  0.46782800  0.53466400  1
  H  714  1  0.81331900  0.44967000  0.47567900  1
  H  715  1  0.75608300  0.44255300  0.49345700  1
  H  716  1  0.81283700  0.42509200  0.50442400  1
  H  718  1  0.06326700  0.51257100  0.55287000  1
  H  720  1  0.92257600  0.48417500  0.44344300  1
  H  731  1  0.78017600  0.72887300  0.89149500  1
  H  732  1  0.79692600  0.77918600  0.87685200  1
  H  735  1  0.69457700  0.77097900  0.74373200  1
  H  736  1  0.69894600  0.73504400  0.72954900  1
  H  737  1  0.79355500  0.73938000  0.72778800  1
  H  738  1  0.78878900  0.77648500  0.74058400  1
  H  739  1  0.76240000  0.76725800  0.70818400  1
  H  742  1  0.70151500  0.66364900  0.77225400  1
  H  743  1  0.71303000  0.68504800  0.74272800  1
  H  744  1  0.61664700  0.68661000  0.77836500  1
  H  745  1  0.62276500  0.66943400  0.74568500  1
  H  746  1  0.62594600  0.70881300  0.74854500  1
  H  748  1  0.77753400  0.80981200  0.81030900  1
  H  750  1  0.71096800  0.68996900  0.87520300  1
  H  761  1  0.27980600  0.27146700  0.60873800  1
  H  762  1  0.29626000  0.22114300  0.62343600  1
  H  765  1  0.19411900  0.22974300  0.75657700  1
  H  766  1  0.19873300  0.26568800  0.77072300  1
  H  767  1  0.29331500  0.26115200  0.77244500  1
  H  768  1  0.28830000  0.22404000  0.75969000  1
  H  769  1  0.26201600  0.23336400  0.79209000  1
  H  772  1  0.20159000  0.33701500  0.72792300  1
  H  773  1  0.21305900  0.31564000  0.75747000  1
  H  774  1  0.11659900  0.31418300  0.72189000  1
  H  775  1  0.12286400  0.33140100  0.75454400  1
  H  776  1  0.12585000  0.29201300  0.75173500  1
  H  778  1  0.27675100  0.19064700  0.69001900  1
  H  780  1  0.21095500  0.31055800  0.62493900  1
  H  791  1  0.21793400  0.26947200  0.10713200  1
  H  792  1  0.20834700  0.21894200  0.12271300  1
  H  795  1  0.31165800  0.23449800  0.25513200  1
  H  796  1  0.30220200  0.27038100  0.26872300  1
  H  797  1  0.20854700  0.26155600  0.27041900  1
  H  798  1  0.21848700  0.22455100  0.25827200  1
  H  799  1  0.24329900  0.23566000  0.29053500  1
  H  802  1  0.29348500  0.34040500  0.22430200  1
  H  803  1  0.28331900  0.31955300  0.25432200  1
  H  804  1  0.38013400  0.31953100  0.21899800  1
  H  805  1  0.37231000  0.33766000  0.25112000  1
  H  806  1  0.37231800  0.29816700  0.24942600  1
  H  808  1  0.23283600  0.19070800  0.18963600  1
  H  810  1  0.28008200  0.31242500  0.12115900  1
  H  821  1  0.71887500  0.73103300  0.39364700  1
  H  822  1  0.70962200  0.78156000  0.37799600  1
  H  825  1  0.81191300  0.76542400  0.24540200  1
  H  826  1  0.80200100  0.72955200  0.23188100  1
  H  827  1  0.70842800  0.73869000  0.23037900  1
  H  828  1  0.71881500  0.77568100  0.24245100  1
  H  829  1  0.74328200  0.76443900  0.21015200  1
  H  832  1  0.79309300  0.65964200  0.27644800  1
  H  833  1  0.78280800  0.68045300  0.24641600  1
  H  834  1  0.87993700  0.68031500  0.28148300  1
  H  835  1  0.87169600  0.66211900  0.24942400  1
  H  836  1  0.87200800  0.70161400  0.25102500  1
  H  838  1  0.73387900  0.80957900  0.31097600  1
  H  840  1  0.78047300  0.68783600  0.37962600  1
  C  1  1  0.86598000  0.95504700  0.87558600  1
  C  2  1  0.82631600  0.97553600  0.87798900  1
  C  3  1  0.79350700  0.97155300  0.85601900  1
  C  4  1  0.81232000  0.94879600  0.83908400  1
  C  5  1  0.78698300  0.94147700  0.81441200  1
  C  6  1  0.74189800  0.95677100  0.80734900  1
  C  7  1  0.72337000  0.97955900  0.82496300  1
  C  8  1  0.74897800  0.98707400  0.84933400  1
  C  9  1  0.82444400  0.99596000  0.89988800  1
  C  10  1  0.86363900  0.99571900  0.91946000  1
  C  11  1  0.90490200  0.97548500  0.91733300  1
  C  12  1  0.90516100  0.95470000  0.89529700  1
  C  13  1  0.85549300  0.90374500  0.85774400  1
  C  14  1  0.89440900  0.88747400  0.84519200  1
  C  15  1  0.92390900  0.90709900  0.82986700  1
  C  16  1  0.90371800  0.93588400  0.83238100  1
  C  17  1  0.96786400  0.90192800  0.81429900  1
  C  18  1  0.99173900  0.92627900  0.80135500  1
  C  19  1  0.97203700  0.95568200  0.80368300  1
  C  20  1  0.92720300  0.96023500  0.81914000  1
  C  21  1  0.82049500  0.88930900  0.87516200  1
  C  22  1  0.82513100  0.85825200  0.87987100  1
  C  23  1  0.86479700  0.84204000  0.86717900  1
  C  24  1  0.89952400  0.85657300  0.84971400  1
  C  37  1  0.85924800  0.93592900  0.85093600  1
  C  38  1  0.99586400  0.97988000  0.78992500  1
  C  39  1  0.79328300  0.84471000  0.89608400  1
  C  40  1  0.71803700  0.95214500  0.78164300  1
  C  41  1  0.94387100  0.97493200  0.93755100  1
  C  46  1  0.63354900  0.55214200  0.87606200  1
  C  47  1  0.67550600  0.53346500  0.87958600  1
  C  48  1  0.70639900  0.53568800  0.85661800  1
  C  49  1  0.68393600  0.55523100  0.83774100  1
  C  50  1  0.70731600  0.56052700  0.81205900  1
  C  51  1  0.75401900  0.54650600  0.80587000  1
  C  52  1  0.77597000  0.52680200  0.82537300  1
  C  53  1  0.75233800  0.52123800  0.85075500  1
  C  54  1  0.68060700  0.51534900  0.90299200  1
  C  55  1  0.64169700  0.51541600  0.92269000  1
  C  56  1  0.59759700  0.53317700  0.91923200  1
  C  57  1  0.59462900  0.55234900  0.89600300  1
  C  58  1  0.63982800  0.60121500  0.85208800  1
  C  59  1  0.60090900  0.61514300  0.83740100  1
  C  60  1  0.57071500  0.59315800  0.82564900  1
  C  61  1  0.59126000  0.56513100  0.83188800  1
  C  62  1  0.52630400  0.59575100  0.80993500  1
  C  63  1  0.50214400  0.56957800  0.80074900  1
  C  64  1  0.52211800  0.54088600  0.80686500  1
  C  65  1  0.56760700  0.53889800  0.82223600  1
  C  66  1  0.67667800  0.61856300  0.86570300  1
  C  67  1  0.67483700  0.65019500  0.86425900  1
  C  68  1  0.63508300  0.66377800  0.84905000  1
  C  69  1  0.59790300  0.64644900  0.83577400  1
  C  82  1  0.63690000  0.56826300  0.84939700  1
  C  83  1  0.49844200  0.51486200  0.79620900  1
  C  84  1  0.71260000  0.66784200  0.87721700  1
  C  85  1  0.77697600  0.54967800  0.77970500  1
  C  86  1  0.55770200  0.53187200  0.93891200  1
  C  91  1  0.36581500  0.04531400  0.62448400  1
  C  92  1  0.32619600  0.02479700  0.62205800  1
  C  93  1  0.29337600  0.02872600  0.64403400  1
  C  94  1  0.31215000  0.05147700  0.66099100  1
  C  95  1  0.28680500  0.05876400  0.68566900  1
  C  96  1  0.24175800  0.04342400  0.69271600  1
  C  97  1  0.22320700  0.02067800  0.67507400  1
  C  98  1  0.24885500  0.01318400  0.65070700  1
  C  99  1  0.32444400  0.00436300  0.60016400  1
  C  100  1  0.36369500  0.00463100  0.58062200  1
  C  101  1  0.40490000  0.02490200  0.58277300  1
  C  102  1  0.40504000  0.04569600  0.60480000  1
  C  103  1  0.35523200  0.09658600  0.64238400  1
  C  104  1  0.39406000  0.11287200  0.65499900  1
  C  105  1  0.42360600  0.09324200  0.67029000  1
  C  106  1  0.40352200  0.06444000  0.66769500  1
  C  107  1  0.46751700  0.09841300  0.68589300  1
  C  108  1  0.49143200  0.07405200  0.69880300  1
  C  109  1  0.47180200  0.04463700  0.69641000  1
  C  110  1  0.42700200  0.04008300  0.68092600  1
  C  111  1  0.32013600  0.11103600  0.62503500  1
  C  112  1  0.32462600  0.14211900  0.62042800  1
  C  113  1  0.36423300  0.15834300  0.63316100  1
  C  114  1  0.39904500  0.14379600  0.65056700  1
  C  127  1  0.35904400  0.06439700  0.64914900  1
  C  128  1  0.49564800  0.02042800  0.71013700  1
  C  129  1  0.29267900  0.15567300  0.60428200  1
  C  130  1  0.21779800  0.04809300  0.71836100  1
  C  131  1  0.44392500  0.02548500  0.56258300  1
  C  136  1  0.13346600  0.44838600  0.62439100  1
  C  137  1  0.17533700  0.46714900  0.62096300  1
  C  138  1  0.20617000  0.46489800  0.64395400  1
  C  139  1  0.18377000  0.44522000  0.66273600  1
  C  140  1  0.20713900  0.43982600  0.68840400  1
  C  141  1  0.25373000  0.45392300  0.69469200  1
  C  142  1  0.27560400  0.47377700  0.67529000  1
  C  143  1  0.25200400  0.47941700  0.64991300  1
  C  144  1  0.18051500  0.48526900  0.59756500  1
  C  145  1  0.14175500  0.48512000  0.57778100  1
  C  146  1  0.09773800  0.46726300  0.58113700  1
  C  147  1  0.09473300  0.44806400  0.60434500  1
  C  148  1  0.13975700  0.39924100  0.64826600  1
  C  149  1  0.10079600  0.38527100  0.66288800  1
  C  150  1  0.07055700  0.40722400  0.67466000  1
  C  151  1  0.09111000  0.43526700  0.66848900  1
  C  152  1  0.02608600  0.40459500  0.69031900  1
  C  153  1  0.00190700  0.43075000  0.69954400  1
  C  154  1  0.02189200  0.45945600  0.69349800  1
  C  155  1  0.06742300  0.46147800  0.67816900  1
  C  156  1  0.17666900  0.38193300  0.63465900  1
  C  157  1  0.17481100  0.35029700  0.63601100  1
  C  158  1  0.13502500  0.33666800  0.65115700  1
  C  159  1  0.09778700  0.35396000  0.66443200  1
  C  172  1  0.13679700  0.43218600  0.65101300  1
  C  173  1  0.99821000  0.48546600  0.70418000  1
  C  174  1  0.21258600  0.33269500  0.62301100  1
  C  175  1  0.27669800  0.45055900  0.72084900  1
  C  176  1  0.05799400  0.46848300  0.56136000  1
  C  181  1  0.14511600  0.04450800  0.12831600  1
  C  182  1  0.18447800  0.02367100  0.12775400  1
  C  183  1  0.21517900  0.02841600  0.15045800  1
  C  184  1  0.19559800  0.05223200  0.16584100  1
  C  185  1  0.21889200  0.06063100  0.19080900  1
  C  186  1  0.26254200  0.04512700  0.19980800  1
  C  187  1  0.28155500  0.02102000  0.18393500  1
  C  188  1  0.25816600  0.01259400  0.15917300  1
  C  189  1  0.18785000  0.00223600  0.10673700  1
  C  190  1  0.15039300  0.00180300  0.08618700  1
  C  191  1  0.10944900  0.02238000  0.08652200  1
  C  192  1  0.10765100  0.04415700  0.10767700  1
  C  193  1  0.15315600  0.09649600  0.14484900  1
  C  194  1  0.11272700  0.11276300  0.15592300  1
  C  195  1  0.08255200  0.09338000  0.17113400  1
  C  196  1  0.10376400  0.06476600  0.16992200  1
  C  197  1  0.03702500  0.09848200  0.18533800  1
  C  198  1  0.01265200  0.07422400  0.19817800  1
  C  199  1  0.03339100  0.04498100  0.19708500  1
  C  200  1  0.07978500  0.04052900  0.18305000  1
  C  201  1  0.18885700  0.11059400  0.12763700  1
  C  202  1  0.18342600  0.14133900  0.12163400  1
  C  203  1  0.14233100  0.15757200  0.13288400  1
  C  204  1  0.10688300  0.14337000  0.15015400  1
  C  217  1  0.14967400  0.06453800  0.15246900  1
  C  218  1  0.00891700  0.02074700  0.21045200  1
  C  219  1  0.21576900  0.15449600  0.10544400  1
  C  220  1  0.28485500  0.05125600  0.22562900  1
  C  221  1  0.07206000  0.02217500  0.06551500  1
  C  226  1  0.35580700  0.44957800  0.12758700  1
  C  227  1  0.31458000  0.46911500  0.12621500  1
  C  228  1  0.28613800  0.46615700  0.15001600  1
  C  229  1  0.30925000  0.44502600  0.16714000  1
  C  230  1  0.28827300  0.43859100  0.19320400  1
  C  231  1  0.24357900  0.45343200  0.20164300  1
  C  232  1  0.22137900  0.47510100  0.18410500  1
  C  233  1  0.24234500  0.48153000  0.15822400  1
  C  234  1  0.30778900  0.48838100  0.10372800  1
  C  235  1  0.34439100  0.48856400  0.08276100  1
  C  236  1  0.38782600  0.46991700  0.08410000  1
  C  237  1  0.39239800  0.44964300  0.10641800  1
  C  238  1  0.35136000  0.39945500  0.14973000  1
  C  239  1  0.39179600  0.38479900  0.16248300  1
  C  240  1  0.42314100  0.40621900  0.17430500  1
  C  241  1  0.40197100  0.43447400  0.16982300  1
  C  242  1  0.46920600  0.40309200  0.18846800  1
  C  243  1  0.49419100  0.42892500  0.19789600  1
  C  244  1  0.47349400  0.45781900  0.19351300  1
  C  245  1  0.42649800  0.46032100  0.17964400  1
  C  246  1  0.31356200  0.38292500  0.13608700  1
  C  247  1  0.31605600  0.35128400  0.13535900  1
  C  248  1  0.35725700  0.33686900  0.14864100  1
  C  249  1  0.39528200  0.35345100  0.16207400  1
  C  262  1  0.35467900  0.43221100  0.15361300  1
  C  263  1  0.49797600  0.48358700  0.20418800  1
  C  264  1  0.27812200  0.33467400  0.12142200  1
  C  265  1  0.22264700  0.44877200  0.22809200  1
  C  266  1  0.42571800  0.47148500  0.06335700  1
  C  271  1  0.64522900  0.95594500  0.37232300  1
  C  272  1  0.68439500  0.97691300  0.37281300  1
  C  273  1  0.71509500  0.97219500  0.35009400  1
  C  274  1  0.69567400  0.94827800  0.33478300  1
  C  275  1  0.71899200  0.93984000  0.30983800  1
  C  276  1  0.76244200  0.95546600  0.30074100  1
  C  277  1  0.78126600  0.97970300  0.31650900  1
  C  278  1  0.75789300  0.98813300  0.34127700  1
  C  279  1  0.68748300  0.99848100  0.39372900  1
  C  280  1  0.64992100  0.99892900  0.41422800  1
  C  281  1  0.60917900  0.97821700  0.41394200  1
  C  282  1  0.60771100  0.95627500  0.39292900  1
  C  283  1  0.65353100  0.90393500  0.35583700  1
  C  284  1  0.61316900  0.88758800  0.34478800  1
  C  285  1  0.58284600  0.90691400  0.32959800  1
  C  286  1  0.60393300  0.93556200  0.33078100  1
  C  287  1  0.53729200  0.90174500  0.31543700  1
  C  288  1  0.51277200  0.92596600  0.30261500  1
  C  289  1  0.53339400  0.95523900  0.30367700  1
  C  290  1  0.57979900  0.95975900  0.31768000  1
  C  291  1  0.68938100  0.88990100  0.37300500  1
  C  292  1  0.68413400  0.85914600  0.37900900  1
  C  293  1  0.64310600  0.84283100  0.36778400  1
  C  294  1  0.60754000  0.85696500  0.35053900  1
  C  307  1  0.64987600  0.93588000  0.34820300  1
  C  308  1  0.50882800  0.97944000  0.29031300  1
  C  309  1  0.71659200  0.84605000  0.39517200  1
  C  310  1  0.78474300  0.94923100  0.27492300  1
  C  311  1  0.57157000  0.97851600  0.43482300  1
  C  316  1  0.85629700  0.55077200  0.37279300  1
  C  317  1  0.81498800  0.53130300  0.37428400  1
  C  318  1  0.78637200  0.53428300  0.35055100  1
  C  319  1  0.80946200  0.55534000  0.33333333  1
  C  320  1  0.78826300  0.56180500  0.30733200  1
  C  321  1  0.74333400  0.54709800  0.29906400  1
  C  322  1  0.72109900  0.52554600  0.31671100  1
  C  323  1  0.74233700  0.51905100  0.34251000  1
  C  324  1  0.80839200  0.51199200  0.39675400  1
  C  325  1  0.84520600  0.51173300  0.41760700  1
  C  326  1  0.88867400  0.53034200  0.41616000  1
  C  327  1  0.89309000  0.55064500  0.39385700  1
  C  328  1  0.85164000  0.60090000  0.35068500  1
  C  329  1  0.89196700  0.61559400  0.33787200  1
  C  330  1  0.92327800  0.59419900  0.32597800  1
  C  331  1  0.90217900  0.56592600  0.33047000  1
  C  332  1  0.96927800  0.59736200  0.31176000  1
  C  333  1  0.99428700  0.57154900  0.30230500  1
  C  334  1  0.97367900  0.54263700  0.30671200  1
  C  335  1  0.92670700  0.54009900  0.32060000  1
  C  336  1  0.81388200  0.61739200  0.36439900  1
  C  337  1  0.81634700  0.64903100  0.36518300  1
  C  338  1  0.85747300  0.66348600  0.35186800  1
  C  339  1  0.89543200  0.64694000  0.33833700  1
  C  352  1  0.85498900  0.56814700  0.34677300  1
  C  353  1  0.99823800  0.51688600  0.29605300  1
  C  354  1  0.77849300  0.66558600  0.37924800  1
  C  355  1  0.72206600  0.55177300  0.27273000  1
  C  356  1  0.92673500  0.52870300  0.43680500  1
  C  361  1  0.07223400  0.00194600  0.77129900  1
  C  362  1  0.06495100  0.00189700  0.74244900  1
  C  363  1  0.09568300  0.01983100  0.72520900  1
  C  364  1  0.13479400  0.03783800  0.73637600  1
  C  365  1  0.14114600  0.03809900  0.76526800  1
  C  366  1  0.11101200  0.02002400  0.78238200  1
  C  368  1  0.05289200  0.00007100  0.68529600  1
  C  369  1  0.02224400  0.98198100  0.70260400  1
  C  373  1  0.05070000  0.00088000  0.65477700  1
  C  374  1  0.07951700  0.97456700  0.64141600  1
  C  380  1  0.98178400  0.96117900  0.69343500  1
  C  381  1  0.92853300  0.97175000  0.70229900  1
  C  391  1  0.42236500  0.49312100  0.77691100  1
  C  392  1  0.43087800  0.49370000  0.74815400  1
  C  393  1  0.39987000  0.47684400  0.73015800  1
  C  394  1  0.35920300  0.45945800  0.74045500  1
  C  395  1  0.35122400  0.45886400  0.76921900  1
  C  396  1  0.38175800  0.47583000  0.78709200  1
  C  398  1  0.44521200  0.49686300  0.69120200  1
  C  399  1  0.47612500  0.51389100  0.70926000  1
  C  403  1  0.44853500  0.49690500  0.66070900  1
  C  404  1  0.42079400  0.52383300  0.64772300  1
  C  410  1  0.51796900  0.53419300  0.70104000  1
  C  411  1  0.57041200  0.52174200  0.70921300  1
  C  421  1  0.57203600  0.99839500  0.72877300  1
  C  422  1  0.56465900  0.99840500  0.75762000  1
  C  423  1  0.59545100  0.98052500  0.77487800  1
  C  424  1  0.63472600  0.96261800  0.76373900  1
  C  425  1  0.64122900  0.96243400  0.73486000  1
  C  426  1  0.61099200  0.98042800  0.71772500  1
  C  428  1  0.55250500  0.00023500  0.81476700  1
  C  429  1  0.52179200  0.01826100  0.79744200  1
  C  433  1  0.55024500  0.99941500  0.84528400  1
  C  434  1  0.57911000  0.02569700  0.85866300  1
  C  440  1  0.48123100  0.03899900  0.80659200  1
  C  441  1  0.42801200  0.02819000  0.79791600  1
  C  451  1  0.92215400  0.50720100  0.72349100  1
  C  452  1  0.93063100  0.50650400  0.75224500  1
  C  453  1  0.89974700  0.52340000  0.77027200  1
  C  454  1  0.85928200  0.54097700  0.76000300  1
  C  455  1  0.85141500  0.54172100  0.73123200  1
  C  456  1  0.88178700  0.52469100  0.71332600  1
  C  458  1  0.94489500  0.50313700  0.80919300  1
  C  459  1  0.97569800  0.48608000  0.79110200  1
  C  463  1  0.94818800  0.50299900  0.83968800  1
  C  464  1  0.92046200  0.47602600  0.85260200  1
  C  470  1  0.01741400  0.46566400  0.79927400  1
  C  471  1  0.06991700  0.47789100  0.79092100  1
  C  481  1  0.93176600  0.99730000  0.22640500  1
  C  482  1  0.93699800  0.99610000  0.25536700  1
  C  483  1  0.90597500  0.97688100  0.27120900  1
  C  484  1  0.86840200  0.95895900  0.25849100  1
  C  485  1  0.86401300  0.95997800  0.22951400  1
  C  486  1  0.89462400  0.97920900  0.21378500  1
  C  488  1  0.94492500  0.99540600  0.31276000  1
  C  489  1  0.97584000  0.01480800  0.29685200  1
  C  493  1  0.94475500  0.99334100  0.34325500  1
  C  494  1  0.91447500  0.01891100  0.35689300  1
  C  500  1  0.01450300  0.03586500  0.30767900  1
  C  501  1  0.06880100  0.02715100  0.29897700  1
  C  511  1  0.57504100  0.50655700  0.22087000  1
  C  512  1  0.56825800  0.50774100  0.24974300  1
  C  513  1  0.59957300  0.52615200  0.26620500  1
  C  514  1  0.63899000  0.54326700  0.25422700  1
  C  515  1  0.64529500  0.54209200  0.22536400  1
  C  516  1  0.61429700  0.52368100  0.20901000  1
  C  518  1  0.55745900  0.50805600  0.30700400  1
  C  519  1  0.52616400  0.48950900  0.29047300  1
  C  523  1  0.55638800  0.50968200  0.33751400  1
  C  524  1  0.58469700  0.48335500  0.35118500  1
  C  530  1  0.48568200  0.46919800  0.30051200  1
  C  531  1  0.43237600  0.47952200  0.29150000  1
  C  541  1  0.43166900  0.00282800  0.27432800  1
  C  542  1  0.43702800  0.00409200  0.24537500  1
  C  543  1  0.40612700  0.02337400  0.22952900  1
  C  544  1  0.36851800  0.04129100  0.24223100  1
  C  545  1  0.36394200  0.04016800  0.27119300  1
  C  546  1  0.39447600  0.02089700  0.28693000  1
  C  548  1  0.44522700  0.00490100  0.18799700  1
  C  549  1  0.47603000  0.98544700  0.20390900  1
  C  553  1  0.44521900  0.00704500  0.15750600  1
  C  554  1  0.41493800  0.98154000  0.14376900  1
  C  560  1  0.51469500  0.96438300  0.19309700  1
  C  561  1  0.56897400  0.97304500  0.20188200  1
  C  571  1  0.07541700  0.49391600  0.27949900  1
  C  572  1  0.06866500  0.49260100  0.25062800  1
  C  573  1  0.10004700  0.47414800  0.23424100  1
  C  574  1  0.13948000  0.45710600  0.24630100  1
  C  575  1  0.14568400  0.45837700  0.27516800  1
  C  576  1  0.11463500  0.47684100  0.29144400  1
  C  578  1  0.05796000  0.49205600  0.19336500  1
  C  579  1  0.02660100  0.51064700  0.20981800  1
  C  583  1  0.05694200  0.49031800  0.16286000  1
  C  584  1  0.08509600  0.51665800  0.14911500  1
  C  590  1  0.98610400  0.53090100  0.19970100  1
  C  591  1  0.93281500  0.52069500  0.20885900  1
  C  601  1  0.03297900  0.99690300  0.02790500  1
  C  602  1  0.05969800  0.98899800  0.00379300  1
  C  603  1  0.03557500  0.98997300  0.97779900  1
  C  604  1  0.98417600  0.99854700  0.97589000  1
  C  605  1  0.95797300  0.00688000  0.00004800  1
  C  606  1  0.98201500  0.00597100  0.02581600  1
  C  608  1  0.11378700  0.97582000  0.95602100  1
  C  609  1  0.13795500  0.97487500  0.98214900  1
  C  613  1  0.13910200  0.96985300  0.92931900  1
  C  614  1  0.16565400  0.99793200  0.91774000  1
  C  620  1  0.19179100  0.96707900  0.98729100  1
  C  621  1  0.19794500  0.93430500  0.99663000  1
  C  631  1  0.46391000  0.49923500  0.02647100  1
  C  632  1  0.43905300  0.50907000  0.00235700  1
  C  633  1  0.46565900  0.51171900  0.97717900  1
  C  634  1  0.51792000  0.50494400  0.97606000  1
  C  635  1  0.54228100  0.49459500  0.00015600  1
  C  636  1  0.51577000  0.49196400  0.02511700  1
  C  638  1  0.38826500  0.52585200  0.95444600  1
  C  639  1  0.36175400  0.52359200  0.97984400  1
  C  643  1  0.36492900  0.53349000  0.92755800  1
  C  644  1  0.33639700  0.50679800  0.91462300  1
  C  650  1  0.30687700  0.52916100  0.98432700  1
  C  651  1  0.29696000  0.55567300  0.00398400  1
  C  661  1  0.53195900  0.00391400  0.47197300  1
  C  662  1  0.55929100  0.01128100  0.49602700  1
  C  663  1  0.53558100  0.01020400  0.52213100  1
  C  664  1  0.48403200  0.00201000  0.52420300  1
  C  665  1  0.45719900  0.99422100  0.50009500  1
  C  666  1  0.48082200  0.99525700  0.47421600  1
  C  668  1  0.61448200  0.02346600  0.54364400  1
  C  669  1  0.63824100  0.02447500  0.51740600  1
  C  673  1  0.64039900  0.02893200  0.57026400  1
  C  674  1  0.66616800  0.00045600  0.58154000  1
  C  680  1  0.69218000  0.03185800  0.51208100  1
  C  681  1  0.69911300  0.06481500  0.50347800  1
  C  691  1  0.96495300  0.50088800  0.47355100  1
  C  692  1  0.93972500  0.49136800  0.49765500  1
  C  693  1  0.96607000  0.48876500  0.52291900  1
  C  694  1  0.01841700  0.49528300  0.52413100  1
  C  695  1  0.04315300  0.50532000  0.50003500  1
  C  696  1  0.01691100  0.50788400  0.47498500  1
  C  698  1  0.88827200  0.47520400  0.54553700  1
  C  699  1  0.86200800  0.47744000  0.52006100  1
  C  703  1  0.86459800  0.46785700  0.57240600  1
  C  704  1  0.83642200  0.49478500  0.58515100  1
  C  710  1  0.80707100  0.47218400  0.51548000  1
  C  711  1  0.79682600  0.44561100  0.49594300  1
  C  721  1  0.75156500  0.71381200  0.85321700  1
  C  722  1  0.74261900  0.72239700  0.82569500  1
  C  723  1  0.75278300  0.75198800  0.81693300  1
  C  724  1  0.77247300  0.77320200  0.83568300  1
  C  725  1  0.78218900  0.76433400  0.86302100  1
  C  726  1  0.77235600  0.73490800  0.87164500  1
  C  728  1  0.72500300  0.73926400  0.77119800  1
  C  729  1  0.71452700  0.70962900  0.78011400  1
  C  733  1  0.71829300  0.75099800  0.74281500  1
  C  734  1  0.76921300  0.75905500  0.72901400  1
  C  740  1  0.69388500  0.68529000  0.76264100  1
  C  741  1  0.63603000  0.68782700  0.75855000  1
  C  751  1  0.25130000  0.28664100  0.64700300  1
  C  752  1  0.24233300  0.27811500  0.67453900  1
  C  753  1  0.25233400  0.24851500  0.68333300  1
  C  754  1  0.27188400  0.22723400  0.66460400  1
  C  755  1  0.28163400  0.23604400  0.63725600  1
  C  756  1  0.27195900  0.26547600  0.62859700  1
  C  758  1  0.22469500  0.26135900  0.72906500  1
  C  759  1  0.21436900  0.29100100  0.72011700  1
  C  763  1  0.21795700  0.24967400  0.75746300  1
  C  764  1  0.26884800  0.24152800  0.77125000  1
  C  770  1  0.19387600  0.31540100  0.73756800  1
  C  771  1  0.13601700  0.31296600  0.74169500  1
  C  781  1  0.24608400  0.28660300  0.14477500  1
  C  782  1  0.25677700  0.27906200  0.17238500  1
  C  783  1  0.25051700  0.24928600  0.18172700  1
  C  784  1  0.23306400  0.22684500  0.16354700  1
  C  785  1  0.22166700  0.23464800  0.13614500  1
  C  786  1  0.22742800  0.26422500  0.12696000  1
  C  788  1  0.27719400  0.26412000  0.22709400  1
  C  789  1  0.28415900  0.29389600  0.21756900  1
  C  793  1  0.28527200  0.25329500  0.25568400  1
  C  794  1  0.23552800  0.24309400  0.26956100  1
  C  800  1  0.30268700  0.31928300  0.23447300  1
  C  801  1  0.36064800  0.31848100  0.23878400  1
  C  811  1  0.74664300  0.71374100  0.35598100  1
  C  812  1  0.75722200  0.72118800  0.32833600  1
  C  813  1  0.75114600  0.75096400  0.31895300  1
  C  814  1  0.73400500  0.77349600  0.33712900  1
  C  815  1  0.72272100  0.76578500  0.36456600  1
  C  816  1  0.72829700  0.73621000  0.37379300  1
  C  818  1  0.77737600  0.73596500  0.27355700  1
  C  819  1  0.78415900  0.70618600  0.28311700  1
  C  823  1  0.78533900  0.74671600  0.24493500  1
  C  824  1  0.73559200  0.75706300  0.23115200  1
  C  830  1  0.80235500  0.68071700  0.26621500  1
  C  831  1  0.86028200  0.68136000  0.26174800  1
  N  367  1  0.08797200  0.01779900  0.69763000  1
  N  370  1  0.03031400  0.98384300  0.73018700  1
  N  387  1  0.16686600  0.05319900  0.71911900  1
  N  389  1  0.04712000  0.98235700  0.78803200  1
  N  397  1  0.40873500  0.47946800  0.70272100  1
  N  400  1  0.46693800  0.51139600  0.73669100  1
  N  417  1  0.32742700  0.44501300  0.72245200  1
  N  419  1  0.44720700  0.51226000  0.79420100  1
  N  427  1  0.58769100  0.98256500  0.80245400  1
  N  430  1  0.52990800  0.01640000  0.76986100  1
  N  447  1  0.66697400  0.94749900  0.78106100  1
  N  449  1  0.54690300  0.01798400  0.71205000  1
  N  457  1  0.90857400  0.52066800  0.79770500  1
  N  460  1  0.96653800  0.48867400  0.76367800  1
  N  477  1  0.82761300  0.55552100  0.77802400  1
  N  479  1  0.94697300  0.48808200  0.70617200  1
  N  487  1  0.91166700  0.97769800  0.29898800  1
  N  490  1  0.96979800  0.01412200  0.26907100  1
  N  507  1  0.83525400  0.94269500  0.27433900  1
  N  509  1  0.95762900  0.01776300  0.21094400  1
  N  517  1  0.59243000  0.52518900  0.29388300  1
  N  520  1  0.53366600  0.49033600  0.26280800  1
  N  537  1  0.67190200  0.55880500  0.27077100  1
  N  539  1  0.54928700  0.48636000  0.20505100  1
  N  547  1  0.41195200  0.02260800  0.20175800  1
  N  550  1  0.46985700  0.98607600  0.23168300  1
  N  567  1  0.33545900  0.05754200  0.22633500  1
  N  569  1  0.45752900  0.98234100  0.28976700  1
  N  577  1  0.09294200  0.47499400  0.20655900  1
  N  580  1  0.03407200  0.50993700  0.23749000  1
  N  597  1  0.17255500  0.44150800  0.22985800  1
  N  599  1  0.04956100  0.51414800  0.29523700  1
  N  607  1  0.06387300  0.98339500  0.95525900  1
  N  610  1  0.10944500  0.98146700  0.00462200  1
  N  627  1  0.95911600  0.99979200  0.95144100  1
  N  629  1  0.05684700  0.99667500  0.05267100  1
  N  637  1  0.43881500  0.51980800  0.95453300  1
  N  640  1  0.38873800  0.51513700  0.00234000  1
  N  657  1  0.54524100  0.50609500  0.95226700  1
  N  659  1  0.43816400  0.49764000  0.05070400  1
  N  667  1  0.56439700  0.01629800  0.54459000  1
  N  670  1  0.60920200  0.01838800  0.49501300  1
  N  687  1  0.45940600  0.00062100  0.54876300  1
  N  689  1  0.55534000  0.00415500  0.44706700  1
  N  697  1  0.93891500  0.48097600  0.54554300  1
  N  700  1  0.88931500  0.48558700  0.49758300  1
  N  717  1  0.04540100  0.49425600  0.54804300  1
  N  719  1  0.93945100  0.50246900  0.44925000  1
  N  727  1  0.74350100  0.75878300  0.79017800  1
  N  730  1  0.72406800  0.70283100  0.80690200  1
  N  747  1  0.78286700  0.80172400  0.82864600  1
  N  749  1  0.74336000  0.68397800  0.86131400  1
  N  757  1  0.24305200  0.24177600  0.71010000  1
  N  760  1  0.22391500  0.29774300  0.69331500  1
  N  777  1  0.28211500  0.19870000  0.67167300  1
  N  779  1  0.24332900  0.31648400  0.63886300  1
  N  787  1  0.26088000  0.24348200  0.20855300  1
  N  790  1  0.27327300  0.29974400  0.19072500  1
  N  807  1  0.22619000  0.19813300  0.17119100  1
  N  809  1  0.24808700  0.31654400  0.13585500  1
  N  817  1  0.76136900  0.75668700  0.29210100  1
  N  820  1  0.77340600  0.70042100  0.30999400  1
  N  837  1  0.72730200  0.80221000  0.32944800  1
  N  839  1  0.74837000  0.68381800  0.36497800  1
  O  42  1  0.76508500  0.83272200  0.91040900  1
  O  43  1  0.96591500  0.00096300  0.77830200  1
  O  44  1  0.74197500  0.96544600  0.76028200  1
  O  45  1  0.96311900  0.94791800  0.94458400  1
  O  87  1  0.73279700  0.65742600  0.90093700  1
  O  88  1  0.52856400  0.49315000  0.78577100  1
  O  89  1  0.75222900  0.53576600  0.75895100  1
  O  90  1  0.53452200  0.55783100  0.94573700  1
  O  132  1  0.26439300  0.16767100  0.59001600  1
  O  133  1  0.46572000  0.99930300  0.72171300  1
  O  134  1  0.24152700  0.03453400  0.73967300  1
  O  135  1  0.46315700  0.05251100  0.55557200  1
  O  177  1  0.23281400  0.34320400  0.59933500  1
  O  178  1  0.02833400  0.50714000  0.71468400  1
  O  179  1  0.25217800  0.46513000  0.74130000  1
  O  180  1  0.03475000  0.44252600  0.55460100  1
  O  222  1  0.24440400  0.16612500  0.09112300  1
  O  223  1  0.03830400  0.99966900  0.22251000  1
  O  224  1  0.26244400  0.03665800  0.24676600  1
  O  225  1  0.05386500  0.04891900  0.05693700  1
  O  267  1  0.25707600  0.34729900  0.09885400  1
  O  268  1  0.46858100  0.50553200  0.21484500  1
  O  269  1  0.24532400  0.46513200  0.24801100  1
  O  270  1  0.44782000  0.44562000  0.05527200  1
  O  312  1  0.74533200  0.83448000  0.40947100  1
  O  313  1  0.53815100  0.00056700  0.27827700  1
  O  314  1  0.76260400  0.96430100  0.25398200  1
  O  315  1  0.55341300  0.95180600  0.44352500  1
  O  357  1  0.75759500  0.65285500  0.40180800  1
  O  358  1  0.96892000  0.49486300  0.28547300  1
  O  359  1  0.74491800  0.53585800  0.25254800  1
  O  360  1  0.94888000  0.55454100  0.44492700  1
