# generated using pymatgen
data_H9C13(N2O)2
_symmetry_space_group_name_H-M   'P 1'
_cell_length_a   61.92960000
_cell_length_b   63.98470000
_cell_length_c   63.98470000
_cell_angle_alpha   89.88430000
_cell_angle_beta   90.00000000
_cell_angle_gamma   90.00000000
_symmetry_Int_Tables_number   1
_chemical_formula_structural   H9C13(N2O)2
_chemical_formula_sum   'H1152 C1664 N512 O256'
_cell_volume   253541.85622641
_cell_formula_units_Z   128
loop_
 _symmetry_equiv_pos_site_id
 _symmetry_equiv_pos_as_xyz
  1  'x, y, z'
loop_
 _atom_site_type_symbol
 _atom_site_label
 _atom_site_symmetry_multiplicity
 _atom_site_fract_x
 _atom_site_fract_y
 _atom_site_fract_z
 _atom_site_occupancy
  H  7  1  0.88396100  0.58843300  0.12164300  1
  H  8  1  0.88685500  0.52313500  0.12461500  1
  H  15  1  0.92688400  0.64801200  0.06144400  1
  H  16  1  0.94063400  0.58693100  0.08034000  1
  H  19  1  0.93554400  0.55039100  0.07509800  1
  H  20  1  0.87332700  0.62090200  0.10488500  1
  H  25  1  0.96333400  0.63087800  0.05621200  1
  H  26  1  0.91900400  0.51600800  0.07826100  1
  H  27  1  0.86736200  0.54631500  0.15209000  1
  H  28  1  0.87181500  0.65002500  0.07923900  1
  H  35  1  0.38428000  0.33489900  0.38326100  1
  H  36  1  0.38668900  0.40019400  0.38045000  1
  H  43  1  0.42668400  0.27558000  0.44378900  1
  H  44  1  0.44100900  0.33645100  0.42456400  1
  H  47  1  0.43568000  0.37305300  0.42992800  1
  H  48  1  0.37348400  0.30290500  0.40027500  1
  H  53  1  0.46367300  0.29257100  0.44845100  1
  H  54  1  0.41888800  0.40738300  0.42676100  1
  H  55  1  0.36720200  0.37684800  0.35299900  1
  H  56  1  0.37132300  0.27440900  0.42667900  1
  H  63  1  0.13481800  0.09418400  0.88134200  1
  H  64  1  0.13709800  0.09126200  0.81603100  1
  H  71  1  0.17670100  0.15519100  0.94018800  1
  H  72  1  0.19123800  0.13575400  0.87953000  1
  H  75  1  0.18585000  0.14092200  0.84279000  1
  H  76  1  0.12370000  0.11134800  0.91304900  1
  H  81  1  0.21352100  0.16005000  0.92362200  1
  H  82  1  0.16891400  0.13778100  0.80851200  1
  H  83  1  0.11784800  0.06385200  0.83937100  1
  H  84  1  0.12150700  0.13717600  0.94159800  1
  H  91  1  0.63463200  0.83261600  0.62737200  1
  H  92  1  0.63731500  0.83559000  0.69267200  1
  H  99  1  0.67672900  0.77199000  0.56813500  1
  H  100  1  0.69089100  0.79078200  0.62907400  1
  H  103  1  0.68572000  0.78581700  0.66576600  1
  H  104  1  0.62357200  0.81570900  0.59526900  1
  H  109  1  0.71338200  0.76656400  0.58520000  1
  H  110  1  0.66907200  0.78901000  0.70010100  1
  H  111  1  0.61802600  0.86300700  0.66952800  1
  H  112  1  0.62169100  0.79023800  0.56636600  1
  H  119  1  0.48834500  0.58751400  0.38404900  1
  H  120  1  0.48570400  0.52217400  0.38208700  1
  H  127  1  0.44550100  0.64769900  0.44351400  1
  H  128  1  0.43183000  0.58650500  0.42521400  1
  H  131  1  0.43703600  0.55111000  0.43111500  1
  H  132  1  0.49882100  0.62034400  0.40032100  1
  H  137  1  0.40899300  0.63063900  0.44869800  1
  H  138  1  0.44660200  0.51686100  0.42452800  1
  H  139  1  0.50482800  0.54515600  0.35411200  1
  H  140  1  0.50070500  0.64950000  0.42574500  1
  H  147  1  0.98810400  0.33571400  0.12118300  1
  H  148  1  0.98582400  0.40105500  0.12308600  1
  H  155  1  0.94550000  0.27578700  0.06149600  1
  H  156  1  0.93153100  0.33684400  0.08007100  1
  H  159  1  0.93697600  0.37225600  0.07401300  1
  H  160  1  0.99869600  0.30322800  0.10465800  1
  H  165  1  0.90854600  0.29286800  0.05687200  1
  H  166  1  0.94677000  0.40647500  0.08055200  1
  H  167  1  0.00500900  0.37812500  0.15092600  1
  H  168  1  0.00087900  0.27442800  0.07881100  1
  H  175  1  0.23782000  0.09492300  0.62849300  1
  H  176  1  0.23539900  0.09281500  0.69387000  1
  H  183  1  0.19533500  0.15484100  0.56834300  1
  H  184  1  0.18160800  0.13651300  0.62956100  1
  H  187  1  0.18687000  0.14195800  0.66500200  1
  H  188  1  0.24850500  0.11128400  0.59570800  1
  H  193  1  0.15896800  0.16041000  0.58532700  1
  H  194  1  0.19652100  0.13540400  0.69918900  1
  H  195  1  0.25430500  0.06490500  0.67094900  1
  H  196  1  0.25032300  0.13649900  0.56636300  1
  H  203  1  0.73745300  0.83219100  0.88023000  1
  H  204  1  0.73556100  0.83417600  0.81485400  1
  H  211  1  0.69558000  0.77184200  0.94008500  1
  H  212  1  0.68127800  0.79049800  0.87907500  1
  H  215  1  0.68677800  0.78501400  0.84358200  1
  H  216  1  0.74835300  0.81556000  0.91253100  1
  H  221  1  0.65869300  0.76675500  0.92326300  1
  H  222  1  0.69676200  0.79145300  0.80938900  1
  H  223  1  0.75462100  0.86186100  0.83758000  1
  H  224  1  0.75084100  0.78956900  0.94127400  1
  H  231  1  0.98761800  0.33475800  0.88709800  1
  H  232  1  0.98407300  0.39987400  0.88514000  1
  H  239  1  0.94519000  0.27304200  0.94340500  1
  H  240  1  0.93050600  0.33447200  0.92582200  1
  H  243  1  0.93689200  0.37091800  0.93708900  1
  H  244  1  0.99948400  0.30342200  0.90425200  1
  H  249  1  0.90796800  0.28696200  0.94514300  1
  H  250  1  0.95045300  0.40620700  0.93074000  1
  H  251  1  0.00373700  0.37709500  0.85711200  1
  H  252  1  0.00169200  0.27392500  0.92904200  1
  H  259  1  0.48828000  0.58841900  0.61792100  1
  H  260  1  0.48425300  0.52333000  0.61976300  1
  H  267  1  0.44510200  0.65065300  0.56216800  1
  H  268  1  0.43107800  0.58887100  0.57897100  1
  H  271  1  0.43715300  0.55251100  0.56802300  1
  H  272  1  0.49977500  0.62044700  0.60134400  1
  H  277  1  0.40796800  0.63608200  0.55968200  1
  H  278  1  0.45041300  0.51723800  0.57432400  1
  H  279  1  0.50365400  0.54635100  0.64820000  1
  H  280  1  0.50138500  0.65050900  0.57695300  1
  H  287  1  0.73834800  0.82819900  0.12622700  1
  H  288  1  0.73568200  0.83172700  0.19156200  1
  H  295  1  0.69287700  0.76939600  0.06814800  1
  H  296  1  0.68129900  0.78786400  0.12925600  1
  H  299  1  0.68742900  0.78138000  0.16519800  1
  H  300  1  0.74891000  0.81036800  0.09412700  1
  H  305  1  0.65685800  0.76438700  0.08607100  1
  H  306  1  0.70394600  0.78513900  0.19924500  1
  H  307  1  0.75484400  0.85919300  0.16792400  1
  H  308  1  0.74790800  0.78803000  0.06392100  1
  H  315  1  0.23881600  0.09501400  0.38005500  1
  H  316  1  0.23555900  0.09134900  0.31472800  1
  H  323  1  0.19280300  0.15346600  0.43867900  1
  H  324  1  0.18170800  0.13546300  0.37727300  1
  H  327  1  0.18747100  0.14148500  0.34128800  1
  H  328  1  0.24920400  0.11285600  0.41274400  1
  H  333  1  0.15703500  0.15906100  0.42003700  1
  H  334  1  0.20362600  0.13784800  0.30716500  1
  H  335  1  0.25483400  0.06386800  0.33823300  1
  H  336  1  0.24740200  0.13417400  0.44352100  1
  H  343  1  0.38466700  0.33572400  0.61730700  1
  H  344  1  0.38824400  0.40086600  0.61818400  1
  H  351  1  0.42709000  0.27324000  0.56199500  1
  H  352  1  0.44149600  0.33491300  0.57868200  1
  H  355  1  0.43498600  0.37007400  0.56631200  1
  H  356  1  0.37282000  0.30386000  0.60081100  1
  H  361  1  0.46424100  0.28729000  0.56006200  1
  H  362  1  0.42741600  0.40535800  0.57596400  1
  H  363  1  0.36900100  0.37836500  0.64683000  1
  H  364  1  0.37058700  0.27402600  0.57651700  1
  H  371  1  0.88426500  0.58756900  0.88791900  1
  H  372  1  0.88798700  0.52244100  0.88705900  1
  H  379  1  0.92756100  0.65030900  0.94270600  1
  H  380  1  0.94125900  0.58831300  0.92666600  1
  H  383  1  0.93485800  0.55316700  0.93874800  1
  H  384  1  0.87301000  0.62002700  0.90402000  1
  H  389  1  0.96460900  0.63562600  0.94529100  1
  H  390  1  0.92739100  0.51799800  0.92903700  1
  H  391  1  0.86866800  0.54497300  0.85839100  1
  H  392  1  0.87115300  0.65018100  0.92824000  1
  H  399  1  0.63340900  0.82755100  0.37873100  1
  H  400  1  0.63629600  0.83004500  0.31331300  1
  H  407  1  0.67946500  0.76946000  0.43813600  1
  H  408  1  0.69031700  0.78710300  0.37664000  1
  H  411  1  0.68445700  0.78048900  0.34195100  1
  H  412  1  0.62332000  0.81051700  0.41222100  1
  H  417  1  0.71495500  0.76361600  0.41985600  1
  H  418  1  0.67559600  0.78782400  0.30813600  1
  H  419  1  0.61767400  0.85834100  0.33692600  1
  H  420  1  0.62478500  0.78860800  0.44303900  1
  H  427  1  0.13398800  0.09561400  0.12693700  1
  H  428  1  0.13653400  0.09253100  0.19235100  1
  H  435  1  0.17994000  0.15354100  0.06806500  1
  H  436  1  0.19095200  0.13552400  0.12951200  1
  H  439  1  0.18465800  0.14259600  0.16428000  1
  H  440  1  0.12350700  0.11359500  0.09437900  1
  H  445  1  0.21598200  0.15846700  0.08641900  1
  H  446  1  0.17516000  0.13538800  0.19811500  1
  H  447  1  0.11749400  0.06501300  0.16934200  1
  H  448  1  0.12506500  0.13469700  0.06356900  1
  H  455  1  0.38471100  0.08771200  0.62654300  1
  H  456  1  0.39187900  0.02248900  0.62907700  1
  H  463  1  0.42500200  0.14713900  0.56536400  1
  H  464  1  0.43794100  0.08662000  0.58374100  1
  H  467  1  0.43171400  0.05152700  0.57477200  1
  H  468  1  0.36687600  0.11967800  0.60540100  1
  H  473  1  0.46167900  0.13016200  0.56066500  1
  H  474  1  0.41848900  0.01680300  0.57919000  1
  H  475  1  0.38194300  0.04536800  0.66063500  1
  H  476  1  0.37169900  0.15241100  0.58622300  1
  H  483  1  0.88457300  0.83847800  0.88219100  1
  H  484  1  0.89179000  0.90369400  0.88029800  1
  H  491  1  0.92402400  0.77831200  0.94353700  1
  H  492  1  0.93741200  0.83897700  0.92581200  1
  H  495  1  0.93163500  0.87413500  0.93424400  1
  H  496  1  0.86641200  0.80576200  0.90295300  1
  H  501  1  0.96058500  0.79546500  0.94921600  1
  H  502  1  0.91857800  0.90897200  0.93011000  1
  H  503  1  0.88236400  0.88114500  0.84854200  1
  H  504  1  0.87128100  0.77307300  0.92146200  1
  H  511  1  0.63512600  0.59056200  0.37741000  1
  H  512  1  0.64336400  0.59002400  0.31258200  1
  H  519  1  0.67170900  0.64821700  0.44084800  1
  H  520  1  0.68806600  0.63221700  0.37981600  1
  H  523  1  0.68231000  0.64567400  0.34442700  1
  H  524  1  0.61578400  0.60925400  0.40742200  1
  H  529  1  0.70912900  0.65145200  0.42776200  1
  H  530  1  0.67186700  0.63894100  0.30825200  1
  H  531  1  0.63268300  0.55791200  0.33403300  1
  H  532  1  0.61660800  0.63021700  0.44036600  1
  H  539  1  0.13539000  0.33241400  0.12814600  1
  H  540  1  0.14331300  0.33296200  0.19300800  1
  H  547  1  0.17145100  0.27432200  0.06498300  1
  H  548  1  0.18826200  0.29061500  0.12580800  1
  H  551  1  0.18238900  0.27725800  0.16121000  1
  H  552  1  0.11583600  0.31360300  0.09858000  1
  H  557  1  0.20933400  0.27170500  0.07796700  1
  H  558  1  0.17178900  0.28400500  0.19739600  1
  H  559  1  0.13234700  0.36503100  0.17156000  1
  H  560  1  0.11631700  0.29239300  0.06587000  1
  H  567  1  0.98770000  0.08661500  0.88277600  1
  H  568  1  0.98078700  0.02136500  0.88152800  1
  H  575  1  0.94787600  0.14680200  0.94314700  1
  H  576  1  0.93477500  0.08617600  0.92564900  1
  H  579  1  0.94111500  0.05212400  0.93526500  1
  H  580  1  0.00562900  0.11895900  0.90303300  1
  H  585  1  0.91120800  0.13004600  0.94817300  1
  H  586  1  0.94709900  0.01793300  0.92747600  1
  H  587  1  0.99028700  0.04365200  0.84966800  1
  H  588  1  0.00123000  0.15170000  0.92199000  1
  H  595  1  0.48812200  0.83910600  0.62587100  1
  H  596  1  0.48066000  0.90431900  0.62722100  1
  H  603  1  0.44769800  0.77850100  0.56551800  1
  H  604  1  0.43507000  0.83933300  0.58298800  1
  H  607  1  0.44100400  0.87346100  0.57381300  1
  H  608  1  0.50599500  0.80570300  0.60506200  1
  H  613  1  0.41121300  0.79586000  0.56017500  1
  H  614  1  0.44678800  0.90773900  0.58156400  1
  H  615  1  0.48976100  0.88191800  0.65921600  1
  H  616  1  0.50049100  0.77274500  0.58673000  1
  H  623  1  0.73714600  0.59124000  0.12944600  1
  H  624  1  0.72905500  0.59160300  0.19429300  1
  H  631  1  0.70075800  0.64833500  0.06524100  1
  H  632  1  0.68428500  0.63270800  0.12639000  1
  H  635  1  0.69035900  0.64704400  0.16058200  1
  H  636  1  0.75645000  0.60938500  0.09918400  1
  H  641  1  0.66319100  0.65168100  0.07821300  1
  H  642  1  0.69483700  0.63699500  0.19637500  1
  H  643  1  0.73974000  0.55928100  0.17324000  1
  H  644  1  0.75595500  0.63039500  0.06619500  1
  H  651  1  0.23742400  0.33147400  0.37616800  1
  H  652  1  0.22903400  0.33107700  0.31135600  1
  H  659  1  0.20046800  0.27478300  0.44068300  1
  H  660  1  0.18461600  0.28981900  0.37923800  1
  H  663  1  0.19051100  0.27567000  0.34500200  1
  H  664  1  0.25649300  0.31352500  0.40714900  1
  H  669  1  0.16302900  0.27109700  0.42713900  1
  H  670  1  0.19491000  0.28569800  0.30923600  1
  H  671  1  0.23910500  0.36341800  0.33244700  1
  H  672  1  0.25550000  0.29282600  0.44041900  1
  H  679  1  0.48777000  0.83847000  0.38584900  1
  H  680  1  0.47980600  0.90342400  0.38479000  1
  H  687  1  0.44770600  0.77611800  0.44234500  1
  H  688  1  0.43429900  0.83748100  0.42707100  1
  H  691  1  0.44069400  0.87188300  0.44068400  1
  H  692  1  0.50643600  0.80621900  0.40579900  1
  H  697  1  0.41094100  0.79069500  0.44569000  1
  H  698  1  0.45109600  0.90775100  0.43362600  1
  H  699  1  0.49385200  0.88362200  0.35382600  1
  H  700  1  0.50214700  0.77291900  0.42396700  1
  H  707  1  0.98726900  0.08754200  0.12300400  1
  H  708  1  0.97925000  0.02261100  0.12441600  1
  H  715  1  0.94720600  0.14976300  0.06704700  1
  H  716  1  0.93377900  0.08827500  0.08222300  1
  H  719  1  0.94047100  0.05393900  0.06816700  1
  H  720  1  0.00604400  0.11841700  0.10276400  1
  H  725  1  0.90966900  0.13479600  0.06481900  1
  H  726  1  0.95089000  0.01796400  0.07537500  1
  H  727  1  0.99042200  0.04426600  0.15619000  1
  H  728  1  0.00195300  0.15225800  0.08450300  1
  H  735  1  0.23839000  0.33135700  0.62906200  1
  H  736  1  0.22993200  0.33281800  0.69393700  1
  H  743  1  0.19738400  0.27566900  0.56647200  1
  H  744  1  0.18403600  0.29135500  0.62797700  1
  H  747  1  0.19019200  0.27735000  0.66271200  1
  H  748  1  0.25649100  0.31126500  0.59748100  1
  H  753  1  0.16054100  0.27292600  0.58105300  1
  H  754  1  0.20072800  0.28429700  0.69863700  1
  H  755  1  0.24333400  0.36399000  0.67307600  1
  H  756  1  0.25156300  0.29383600  0.56341200  1
  H  763  1  0.73796800  0.59419600  0.87836200  1
  H  764  1  0.72981400  0.59338100  0.81344300  1
  H  771  1  0.69791000  0.65127800  0.94040500  1
  H  772  1  0.68419700  0.63484900  0.87934200  1
  H  775  1  0.69083700  0.64918100  0.84509700  1
  H  776  1  0.75638300  0.61424100  0.90991500  1
  H  781  1  0.66051400  0.65276500  0.92599100  1
  H  782  1  0.70118400  0.64230400  0.80911700  1
  H  783  1  0.74129600  0.56155200  0.83439700  1
  H  784  1  0.75255200  0.63314900  0.94319700  1
  H  791  1  0.88459400  0.83897400  0.12182900  1
  H  792  1  0.89268700  0.90391400  0.12233500  1
  H  799  1  0.92490900  0.77571600  0.06697900  1
  H  800  1  0.93809900  0.83754700  0.08122600  1
  H  803  1  0.93162300  0.87126600  0.06667100  1
  H  804  1  0.86599100  0.80695800  0.10230900  1
  H  809  1  0.96164900  0.79047700  0.06333800  1
  H  810  1  0.92722000  0.90668200  0.07721500  1
  H  811  1  0.87958500  0.88367600  0.15372900  1
  H  812  1  0.87090100  0.77264800  0.08532100  1
  H  819  1  0.38474800  0.08617100  0.38606700  1
  H  820  1  0.39282200  0.02123500  0.38612700  1
  H  827  1  0.42451900  0.14900200  0.44181300  1
  H  828  1  0.43796500  0.08756100  0.42700300  1
  H  831  1  0.43105000  0.05435900  0.44203500  1
  H  832  1  0.36604600  0.11805700  0.40551800  1
  H  837  1  0.46184800  0.13432700  0.44445200  1
  H  838  1  0.42676800  0.01892200  0.43175700  1
  H  839  1  0.38145700  0.04169200  0.35407100  1
  H  840  1  0.36980200  0.15162000  0.42399800  1
  H  847  1  0.13425600  0.33104900  0.87766500  1
  H  848  1  0.14266700  0.33146200  0.81276900  1
  H  855  1  0.17524600  0.27564700  0.94065600  1
  H  856  1  0.18826200  0.29133300  0.87911200  1
  H  859  1  0.18150000  0.27587200  0.84592000  1
  H  860  1  0.11616600  0.31133400  0.90950700  1
  H  865  1  0.21226800  0.27381800  0.92609000  1
  H  866  1  0.17694100  0.28604500  0.81035800  1
  H  867  1  0.13210500  0.36347100  0.83417800  1
  H  868  1  0.12048000  0.29306200  0.94342400  1
  H  875  1  0.63376100  0.59550900  0.63056900  1
  H  876  1  0.64194800  0.59533300  0.69550500  1
  H  883  1  0.67459800  0.65116700  0.56733000  1
  H  884  1  0.68756900  0.63604000  0.62894000  1
  H  887  1  0.68111800  0.65068600  0.66234000  1
  H  888  1  0.61561600  0.61488000  0.59744800  1
  H  893  1  0.71134600  0.65423100  0.58213100  1
  H  894  1  0.67699400  0.64011800  0.69766300  1
  H  895  1  0.62795000  0.56420700  0.67619600  1
  H  896  1  0.62015200  0.63282500  0.56402100  1
  H  903  1  0.97544400  0.63991300  0.98632500  1
  H  906  1  0.92942700  0.54962200  0.03091400  1
  H  907  1  0.92421300  0.57629900  0.03610200  1
  H  908  1  0.94938400  0.56461500  0.04393900  1
  H  917  1  0.47538800  0.28308300  0.51887900  1
  H  920  1  0.42951200  0.37338300  0.47411100  1
  H  921  1  0.42411000  0.34668300  0.46922200  1
  H  922  1  0.44922100  0.35818900  0.46098100  1
  H  931  1  0.22264900  0.23137100  0.93250100  1
  H  934  1  0.17969700  0.18455600  0.84238800  1
  H  935  1  0.17394600  0.18048500  0.86919000  1
  H  936  1  0.19904400  0.17157200  0.85819800  1
  H  945  1  0.72264400  0.69552300  0.57654000  1
  H  948  1  0.67971200  0.74216100  0.66666667  1
  H  949  1  0.67414100  0.74651200  0.63986600  1
  H  950  1  0.69930500  0.75504200  0.65103300  1
  H  959  1  0.39701800  0.64019900  0.51868300  1
  H  962  1  0.44264600  0.54956500  0.47500500  1
  H  963  1  0.44796500  0.57621900  0.46965200  1
  H  964  1  0.42278300  0.56457800  0.46179700  1
  H  973  1  0.89693100  0.28283800  0.98636100  1
  H  976  1  0.94256800  0.37344100  0.03016300  1
  H  977  1  0.94806000  0.34676100  0.03522600  1
  H  978  1  0.92294400  0.35824000  0.04348100  1
  H  987  1  0.14966300  0.23130600  0.57589400  1
  H  990  1  0.19219700  0.18536600  0.66666667  1
  H  991  1  0.19813000  0.18122700  0.63997100  1
  H  992  1  0.17298800  0.17225500  0.65089500  1
  H  1001  1  0.64985700  0.69502500  0.93263800  1
  H  1004  1  0.69244900  0.74169400  0.84236800  1
  H  1005  1  0.69807800  0.74595400  0.86915100  1
  H  1006  1  0.67296100  0.75468600  0.85798300  1
  H  1015  1  0.64999100  0.69251300  0.07422800  1
  H  1018  1  0.69307500  0.73765700  0.16515000  1
  H  1019  1  0.69847300  0.74231100  0.13837900  1
  H  1020  1  0.67349500  0.75089400  0.14986100  1
  H  1029  1  0.14973700  0.23059700  0.43103600  1
  H  1032  1  0.19260200  0.18517500  0.34019200  1
  H  1033  1  0.19830900  0.18090500  0.36697200  1
  H  1034  1  0.17330800  0.17193100  0.35582900  1
  H  1043  1  0.72207400  0.69224100  0.43139900  1
  H  1046  1  0.67994400  0.73716000  0.33996000  1
  H  1047  1  0.67406500  0.74135300  0.36671400  1
  H  1048  1  0.69906800  0.75051000  0.35565700  1
  H  1057  1  0.22239400  0.23052700  0.07393800  1
  H  1060  1  0.17962500  0.18584700  0.16507800  1
  H  1061  1  0.17421700  0.18133000  0.13829100  1
  H  1062  1  0.19910200  0.17246300  0.14981300  1
  H  1071  1  0.47126200  0.14160700  0.48785200  1
  H  1074  1  0.42960400  0.05009500  0.53334800  1
  H  1075  1  0.42321100  0.07666900  0.53790300  1
  H  1076  1  0.44865100  0.06607300  0.54651000  1
  H  1085  1  0.97170000  0.78482300  0.02098800  1
  H  1088  1  0.92995700  0.87667400  0.97589400  1
  H  1089  1  0.92319000  0.85017700  0.97141100  1
  H  1090  1  0.94878200  0.86041700  0.96278300  1
  H  1099  1  0.90088400  0.14186500  0.02057300  1
  H  1102  1  0.94237300  0.04983000  0.97644500  1
  H  1103  1  0.94908800  0.07636100  0.97190900  1
  H  1104  1  0.92365800  0.06600100  0.96300800  1
  H  1113  1  0.40104400  0.78472300  0.48813900  1
  H  1116  1  0.44221200  0.87665100  0.53249300  1
  H  1117  1  0.44878000  0.85010800  0.53715300  1
  H  1118  1  0.42328200  0.86057400  0.54578200  1
  H  1127  1  0.90801600  0.46492900  0.12363800  1
  H  1130  1  0.99541200  0.45261900  0.05285500  1
  H  1131  1  0.97482600  0.43409300  0.05773000  1
  H  1132  1  0.99388100  0.44062000  0.07772000  1
  H  1141  1  0.40810300  0.45843900  0.38140300  1
  H  1144  1  0.49546700  0.47036100  0.45228700  1
  H  1145  1  0.47504200  0.48903700  0.44733700  1
  H  1146  1  0.49403200  0.48227000  0.42736700  1
  H  1155  1  0.15810900  0.09239800  0.75772200  1
  H  1158  1  0.24555800  0.16316700  0.74554400  1
  H  1159  1  0.22499600  0.15833300  0.72699600  1
  H  1160  1  0.24406700  0.13834200  0.73354700  1
  H  1169  1  0.65801900  0.83443300  0.75091200  1
  H  1172  1  0.74550600  0.76376000  0.76347000  1
  H  1173  1  0.72479000  0.76852800  0.78187300  1
  H  1174  1  0.74393000  0.78853500  0.77554900  1
  H  1183  1  0.96409300  0.45763800  0.88521400  1
  H  1186  1  0.87597000  0.47099400  0.95478800  1
  H  1187  1  0.89597800  0.49010500  0.94995900  1
  H  1188  1  0.87816800  0.48196900  0.92948300  1
  H  1197  1  0.46421600  0.46575400  0.61983900  1
  H  1200  1  0.37607500  0.45200500  0.55034100  1
  H  1201  1  0.39609600  0.43293500  0.55524600  1
  H  1202  1  0.37830700  0.44116800  0.57570000  1
  H  1211  1  0.71420900  0.83053900  0.25002500  1
  H  1214  1  0.62679200  0.75961700  0.26142300  1
  H  1215  1  0.64730700  0.76445200  0.28002200  1
  H  1216  1  0.62812100  0.78437300  0.27356900  1
  H  1225  1  0.21438500  0.09239300  0.25635100  1
  H  1228  1  0.12694500  0.16313500  0.24394900  1
  H  1229  1  0.14769800  0.15835800  0.22559200  1
  H  1230  1  0.12846300  0.13840000  0.23179300  1
  H  1239  1  0.40807000  0.96568200  0.62458700  1
  H  1242  1  0.49608900  0.95472000  0.55429100  1
  H  1243  1  0.47571100  0.93592900  0.55895300  1
  H  1244  1  0.49434300  0.94283100  0.57919400  1
  H  1253  1  0.90788400  0.96011100  0.88466500  1
  H  1256  1  0.99592400  0.97179000  0.95486100  1
  H  1257  1  0.97538800  0.99038100  0.95008800  1
  H  1258  1  0.99415100  0.98358200  0.92992200  1
  H  1267  1  0.65805500  0.59345000  0.25681800  1
  H  1270  1  0.74698200  0.66207100  0.24315900  1
  H  1271  1  0.72683600  0.65750800  0.22415100  1
  H  1272  1  0.74428300  0.63675800  0.23242500  1
  H  1281  1  0.15813700  0.32947400  0.24885100  1
  H  1284  1  0.24705300  0.26078200  0.26207400  1
  H  1285  1  0.22696900  0.26526300  0.28116800  1
  H  1286  1  0.24436800  0.28605700  0.27291000  1
  H  1295  1  0.46440300  0.95929600  0.38813600  1
  H  1298  1  0.37570200  0.97220500  0.45720300  1
  H  1299  1  0.39595400  0.99112400  0.45263500  1
  H  1300  1  0.37819500  0.98330000  0.43199000  1
  H  1309  1  0.96414400  0.96642600  0.12093600  1
  H  1312  1  0.87538400  0.95400500  0.05191200  1
  H  1313  1  0.89533100  0.93479300  0.05654800  1
  H  1314  1  0.87781100  0.94306400  0.07721000  1
  H  1323  1  0.21435900  0.32973300  0.75010400  1
  H  1326  1  0.12560900  0.26084600  0.76360300  1
  H  1327  1  0.14582600  0.26541300  0.78254000  1
  H  1328  1  0.12817300  0.28609600  0.77450900  1
  H  1337  1  0.71422500  0.59701700  0.75746900  1
  H  1340  1  0.62543100  0.66605200  0.74513800  1
  H  1341  1  0.64560900  0.66155900  0.72612800  1
  H  1342  1  0.62778300  0.64092300  0.73391100  1
  H  1351  1  0.79498800  0.54167700  0.17461900  1
  H  1354  1  0.83353500  0.61521500  0.10210700  1
  H  1355  1  0.84499800  0.58987700  0.10373000  1
  H  1356  1  0.84476400  0.60676900  0.12623400  1
  H  1365  1  0.29497500  0.38136300  0.33059500  1
  H  1368  1  0.33360400  0.30766100  0.40290300  1
  H  1369  1  0.34474300  0.33314400  0.40129800  1
  H  1370  1  0.34487900  0.31620000  0.37882100  1
  H  1379  1  0.04635600  0.04179800  0.83353500  1
  H  1382  1  0.08362100  0.11364700  0.90832800  1
  H  1383  1  0.09471300  0.11227300  0.88282600  1
  H  1384  1  0.09535000  0.08978900  0.89984300  1
  H  1393  1  0.54625200  0.88485100  0.67562500  1
  H  1396  1  0.58367000  0.81316600  0.60072700  1
  H  1397  1  0.59490100  0.81448300  0.62617900  1
  H  1398  1  0.59537900  0.83702300  0.60923200  1
  H  1407  1  0.57741700  0.54117200  0.33117700  1
  H  1410  1  0.53850100  0.61514300  0.40272100  1
  H  1411  1  0.52718400  0.58972400  0.40131200  1
  H  1412  1  0.52715500  0.60658800  0.37870500  1
  H  1421  1  0.07745800  0.38174400  0.17396600  1
  H  1424  1  0.03841900  0.30776100  0.10246600  1
  H  1425  1  0.02734200  0.33333333  0.10383700  1
  H  1426  1  0.02704800  0.31641400  0.12644100  1
  H  1435  1  0.32616000  0.04220100  0.67604500  1
  H  1438  1  0.28839700  0.11351700  0.60077400  1
  H  1439  1  0.27721800  0.11231700  0.62626200  1
  H  1440  1  0.27667500  0.08970200  0.60950500  1
  H  1449  1  0.82612800  0.88454300  0.83285500  1
  H  1452  1  0.78835600  0.81343000  0.90830900  1
  H  1453  1  0.77741900  0.81464000  0.88271400  1
  H  1454  1  0.77661400  0.83722000  0.89952300  1
  H  1463  1  0.07614600  0.38147600  0.83288200  1
  H  1466  1  0.03868800  0.30731100  0.90498600  1
  H  1467  1  0.02710900  0.33262800  0.90361100  1
  H  1468  1  0.02731900  0.31592800  0.88096600  1
  H  1477  1  0.57702400  0.54493700  0.67424200  1
  H  1480  1  0.53909600  0.61493700  0.59943400  1
  H  1481  1  0.52589500  0.59044500  0.60181100  1
  H  1482  1  0.52913100  0.60703500  0.62425900  1
  H  1491  1  0.82720200  0.88258500  0.17141900  1
  H  1494  1  0.78850600  0.80914600  0.09920600  1
  H  1495  1  0.77671400  0.81098400  0.12437000  1
  H  1496  1  0.77749700  0.83342500  0.10736300  1
  H  1505  1  0.32842100  0.04115900  0.33507400  1
  H  1508  1  0.28810900  0.11419400  0.40654200  1
  H  1509  1  0.27620500  0.11235600  0.38141700  1
  H  1510  1  0.27743700  0.08981000  0.39827000  1
  H  1519  1  0.29660000  0.38084100  0.67305000  1
  H  1522  1  0.33349500  0.30795600  0.60011200  1
  H  1523  1  0.34598000  0.33285100  0.60181100  1
  H  1524  1  0.34436200  0.31617500  0.62445800  1
  H  1533  1  0.79505400  0.54314400  0.83292300  1
  H  1536  1  0.83403200  0.61539800  0.90521000  1
  H  1537  1  0.84633800  0.59040400  0.90355300  1
  H  1538  1  0.84454900  0.60693500  0.88080400  1
  H  1547  1  0.54407100  0.88278300  0.33560400  1
  H  1550  1  0.58396000  0.80872400  0.40591900  1
  H  1551  1  0.59675800  0.81094300  0.38123400  1
  H  1552  1  0.59400600  0.83345000  0.39783300  1
  H  1561  1  0.04487500  0.04223300  0.17310600  1
  H  1564  1  0.08462800  0.11335300  0.09858400  1
  H  1565  1  0.09540300  0.11219200  0.12423400  1
  H  1566  1  0.09630800  0.08958800  0.10750100  1
  H  1575  1  0.86796400  0.69608600  0.09687600  1
  H  1578  1  0.93498400  0.74413500  0.02165200  1
  H  1579  1  0.93519000  0.74641700  0.04900500  1
  H  1580  1  0.91485900  0.75940900  0.03366800  1
  H  1589  1  0.36727500  0.22831400  0.40920200  1
  H  1592  1  0.43626400  0.18265900  0.48363700  1
  H  1593  1  0.43513900  0.17999700  0.45633000  1
  H  1594  1  0.41642600  0.16611700  0.47286700  1
  H  1603  1  0.11891400  0.12035900  0.98844600  1
  H  1606  1  0.18356600  0.19900500  0.03538600  1
  H  1607  1  0.18680200  0.17173100  0.03806600  1
  H  1608  1  0.16395900  0.18481600  0.04946400  1
  H  1617  1  0.61902000  0.80659200  0.51869400  1
  H  1620  1  0.68520500  0.72815800  0.47366500  1
  H  1621  1  0.68744800  0.75540000  0.46984800  1
  H  1622  1  0.66488200  0.74109500  0.45933500  1
  H  1631  1  0.50500900  0.69583600  0.40907900  1
  H  1634  1  0.43636600  0.74227100  0.48374800  1
  H  1635  1  0.43679600  0.74547000  0.45648100  1
  H  1636  1  0.45689800  0.75785100  0.47268100  1
  H  1645  1  0.00502900  0.22898900  0.09621300  1
  H  1648  1  0.93781100  0.18050400  0.02167200  1
  H  1649  1  0.93730700  0.17925300  0.04910600  1
  H  1650  1  0.95731200  0.16505300  0.03445600  1
  H  1659  1  0.25299500  0.11979200  0.51911300  1
  H  1662  1  0.18796000  0.19855600  0.47254600  1
  H  1663  1  0.18554400  0.17137900  0.46859900  1
  H  1664  1  0.20843000  0.18550200  0.45857900  1
  H  1673  1  0.75316800  0.80635500  0.98863900  1
  H  1676  1  0.68733800  0.72744000  0.03340100  1
  H  1677  1  0.68507400  0.75479200  0.03629200  1
  H  1678  1  0.70691700  0.74063900  0.04836300  1
  H  1687  1  0.00571300  0.22773800  0.91107300  1
  H  1690  1  0.93714300  0.17973600  0.98511900  1
  H  1691  1  0.93739900  0.17758400  0.95774000  1
  H  1692  1  0.95752900  0.16453900  0.97341900  1
  H  1701  1  0.50562900  0.69694400  0.59500400  1
  H  1704  1  0.43881300  0.74677600  0.51984800  1
  H  1705  1  0.43799700  0.75074400  0.54693800  1
  H  1706  1  0.46059000  0.75993900  0.53176500  1
  H  1715  1  0.36611900  0.22810600  0.59415600  1
  H  1718  1  0.43297200  0.17755300  0.51970300  1
  H  1719  1  0.43462900  0.17524900  0.54698800  1
  H  1720  1  0.41217400  0.16414800  0.53292600  1
  H  1729  1  0.86734200  0.69696600  0.91034600  1
  H  1732  1  0.93537600  0.74431300  0.98515300  1
  H  1733  1  0.93495600  0.74756700  0.95788500  1
  H  1734  1  0.91440200  0.75925300  0.97402200  1
  H  1743  1  0.61356900  0.61758900  0.48872600  1
  H  1746  1  0.68291700  0.69432000  0.53284900  1
  H  1747  1  0.68498700  0.66718700  0.53736100  1
  H  1748  1  0.66238400  0.68180100  0.54730300  1
  H  1757  1  0.11333700  0.30535100  0.01822800  1
  H  1760  1  0.18135100  0.22841200  0.97231900  1
  H  1761  1  0.18432200  0.25561500  0.96886500  1
  H  1762  1  0.16142400  0.24210900  0.95814000  1
  H  1771  1  0.75881300  0.61784400  0.01809500  1
  H  1774  1  0.68964100  0.69492900  0.97407300  1
  H  1775  1  0.68758800  0.66767600  0.97039900  1
  H  1776  1  0.70963100  0.68219800  0.95917700  1
  H  1785  1  0.25810100  0.30613100  0.48853600  1
  H  1788  1  0.19014800  0.22873400  0.53388400  1
  H  1789  1  0.18794700  0.25586500  0.53820400  1
  H  1790  1  0.21062300  0.24144200  0.54816500  1
  H  1799  1  0.23920300  0.58843300  0.12164300  1
  H  1800  1  0.24209700  0.52313500  0.12461500  1
  H  1807  1  0.28212600  0.64801200  0.06144400  1
  H  1808  1  0.29587600  0.58693100  0.08034000  1
  H  1811  1  0.29078600  0.55039100  0.07509800  1
  H  1812  1  0.22856900  0.62090200  0.10488500  1
  H  1817  1  0.31857600  0.63087800  0.05621200  1
  H  1818  1  0.27424600  0.51600800  0.07826100  1
  H  1819  1  0.22260400  0.54631500  0.15209000  1
  H  1820  1  0.22705700  0.65002500  0.07923900  1
  H  1827  1  0.73952200  0.33489900  0.38326100  1
  H  1828  1  0.74193100  0.40019400  0.38045000  1
  H  1835  1  0.78192600  0.27558000  0.44378900  1
  H  1836  1  0.79625100  0.33645100  0.42456400  1
  H  1839  1  0.79092200  0.37305300  0.42992800  1
  H  1840  1  0.72872600  0.30290500  0.40027500  1
  H  1845  1  0.81891500  0.29257100  0.44845100  1
  H  1846  1  0.77413000  0.40738300  0.42676100  1
  H  1847  1  0.72244400  0.37684800  0.35299900  1
  H  1848  1  0.72656500  0.27440900  0.42667900  1
  H  1855  1  0.49006000  0.09418400  0.88134200  1
  H  1856  1  0.49234000  0.09126200  0.81603100  1
  H  1863  1  0.53194300  0.15519100  0.94018800  1
  H  1864  1  0.54648000  0.13575400  0.87953000  1
  H  1867  1  0.54109200  0.14092200  0.84279000  1
  H  1868  1  0.47894200  0.11134800  0.91304900  1
  H  1873  1  0.56876300  0.16005000  0.92362200  1
  H  1874  1  0.52415600  0.13778100  0.80851200  1
  H  1875  1  0.47309000  0.06385200  0.83937100  1
  H  1876  1  0.47674900  0.13717600  0.94159800  1
  H  1883  1  0.98987400  0.83261600  0.62737200  1
  H  1884  1  0.99255700  0.83559000  0.69267200  1
  H  1891  1  0.03197110  0.77199000  0.56813500  1
  H  1892  1  0.04613310  0.79078200  0.62907400  1
  H  1895  1  0.04096210  0.78581700  0.66576600  1
  H  1896  1  0.97881400  0.81570900  0.59526900  1
  H  1901  1  0.06862410  0.76656400  0.58520000  1
  H  1902  1  0.02431410  0.78901000  0.70010100  1
  H  1903  1  0.97326800  0.86300700  0.66952800  1
  H  1904  1  0.97693300  0.79023800  0.56636600  1
  H  1911  1  0.84358700  0.58751400  0.38404900  1
  H  1912  1  0.84094600  0.52217400  0.38208700  1
  H  1919  1  0.80074300  0.64769900  0.44351400  1
  H  1920  1  0.78707200  0.58650500  0.42521400  1
  H  1923  1  0.79227800  0.55111000  0.43111500  1
  H  1924  1  0.85406300  0.62034400  0.40032100  1
  H  1929  1  0.76423500  0.63063900  0.44869800  1
  H  1930  1  0.80184400  0.51686100  0.42452800  1
  H  1931  1  0.86007000  0.54515600  0.35411200  1
  H  1932  1  0.85594700  0.64950000  0.42574500  1
  H  1939  1  0.34334600  0.33571400  0.12118300  1
  H  1940  1  0.34106600  0.40105500  0.12308600  1
  H  1947  1  0.30074200  0.27578700  0.06149600  1
  H  1948  1  0.28677300  0.33684400  0.08007100  1
  H  1951  1  0.29221800  0.37225600  0.07401300  1
  H  1952  1  0.35393800  0.30322800  0.10465800  1
  H  1957  1  0.26378800  0.29286800  0.05687200  1
  H  1958  1  0.30201200  0.40647500  0.08055200  1
  H  1959  1  0.36025100  0.37812500  0.15092600  1
  H  1960  1  0.35612100  0.27442800  0.07881100  1
  H  1967  1  0.59306200  0.09492300  0.62849300  1
  H  1968  1  0.59064100  0.09281500  0.69387000  1
  H  1975  1  0.55057700  0.15484100  0.56834300  1
  H  1976  1  0.53685000  0.13651300  0.62956100  1
  H  1979  1  0.54211200  0.14195800  0.66500200  1
  H  1980  1  0.60374700  0.11128400  0.59570800  1
  H  1985  1  0.51421000  0.16041000  0.58532700  1
  H  1986  1  0.55176300  0.13540400  0.69918900  1
  H  1987  1  0.60954700  0.06490500  0.67094900  1
  H  1988  1  0.60556500  0.13649900  0.56636300  1
  H  1995  1  0.09269510  0.83219100  0.88023000  1
  H  1996  1  0.09080310  0.83417600  0.81485400  1
  H  2003  1  0.05082210  0.77184200  0.94008500  1
  H  2004  1  0.03652010  0.79049800  0.87907500  1
  H  2007  1  0.04202010  0.78501400  0.84358200  1
  H  2008  1  0.10359500  0.81556000  0.91253100  1
  H  2013  1  0.01393510  0.76675500  0.92326300  1
  H  2014  1  0.05200410  0.79145300  0.80938900  1
  H  2015  1  0.10986300  0.86186100  0.83758000  1
  H  2016  1  0.10608300  0.78956900  0.94127400  1
  H  2023  1  0.34286000  0.33475800  0.88709800  1
  H  2024  1  0.33931500  0.39987400  0.88514000  1
  H  2031  1  0.30043200  0.27304200  0.94340500  1
  H  2032  1  0.28574800  0.33447200  0.92582200  1
  H  2035  1  0.29213400  0.37091800  0.93708900  1
  H  2036  1  0.35472600  0.30342200  0.90425200  1
  H  2041  1  0.26321000  0.28696200  0.94514300  1
  H  2042  1  0.30569500  0.40620700  0.93074000  1
  H  2043  1  0.35897900  0.37709500  0.85711200  1
  H  2044  1  0.35693400  0.27392500  0.92904200  1
  H  2051  1  0.84352200  0.58841900  0.61792100  1
  H  2052  1  0.83949500  0.52333000  0.61976300  1
  H  2059  1  0.80034400  0.65065300  0.56216800  1
  H  2060  1  0.78632000  0.58887100  0.57897100  1
  H  2063  1  0.79239500  0.55251100  0.56802300  1
  H  2064  1  0.85501700  0.62044700  0.60134400  1
  H  2069  1  0.76321000  0.63608200  0.55968200  1
  H  2070  1  0.80565500  0.51723800  0.57432400  1
  H  2071  1  0.85889600  0.54635100  0.64820000  1
  H  2072  1  0.85662700  0.65050900  0.57695300  1
  H  2079  1  0.09359010  0.82819900  0.12622700  1
  H  2080  1  0.09092410  0.83172700  0.19156200  1
  H  2087  1  0.04811910  0.76939600  0.06814800  1
  H  2088  1  0.03654110  0.78786400  0.12925600  1
  H  2091  1  0.04267110  0.78138000  0.16519800  1
  H  2092  1  0.10415200  0.81036800  0.09412700  1
  H  2097  1  0.01210010  0.76438700  0.08607100  1
  H  2098  1  0.05918810  0.78513900  0.19924500  1
  H  2099  1  0.11008600  0.85919300  0.16792400  1
  H  2100  1  0.10315000  0.78803000  0.06392100  1
  H  2107  1  0.59405800  0.09501400  0.38005500  1
  H  2108  1  0.59080100  0.09134900  0.31472800  1
  H  2115  1  0.54804500  0.15346600  0.43867900  1
  H  2116  1  0.53695000  0.13546300  0.37727300  1
  H  2119  1  0.54271300  0.14148500  0.34128800  1
  H  2120  1  0.60444600  0.11285600  0.41274400  1
  H  2125  1  0.51227700  0.15906100  0.42003700  1
  H  2126  1  0.55886800  0.13784800  0.30716500  1
  H  2127  1  0.61007600  0.06386800  0.33823300  1
  H  2128  1  0.60264400  0.13417400  0.44352100  1
  H  2135  1  0.73990900  0.33572400  0.61730700  1
  H  2136  1  0.74348600  0.40086600  0.61818400  1
  H  2143  1  0.78233200  0.27324000  0.56199500  1
  H  2144  1  0.79673800  0.33491300  0.57868200  1
  H  2147  1  0.79022800  0.37007400  0.56631200  1
  H  2148  1  0.72806200  0.30386000  0.60081100  1
  H  2153  1  0.81948300  0.28729000  0.56006200  1
  H  2154  1  0.78265800  0.40535800  0.57596400  1
  H  2155  1  0.72424300  0.37836500  0.64683000  1
  H  2156  1  0.72582900  0.27402600  0.57651700  1
  H  2163  1  0.23950700  0.58756900  0.88791900  1
  H  2164  1  0.24322900  0.52244100  0.88705900  1
  H  2171  1  0.28280300  0.65030900  0.94270600  1
  H  2172  1  0.29650100  0.58831300  0.92666600  1
  H  2175  1  0.29010000  0.55316700  0.93874800  1
  H  2176  1  0.22825200  0.62002700  0.90402000  1
  H  2181  1  0.31985100  0.63562600  0.94529100  1
  H  2182  1  0.28263300  0.51799800  0.92903700  1
  H  2183  1  0.22391000  0.54497300  0.85839100  1
  H  2184  1  0.22639500  0.65018100  0.92824000  1
  H  2191  1  0.98865100  0.82755100  0.37873100  1
  H  2192  1  0.99153800  0.83004500  0.31331300  1
  H  2199  1  0.03470710  0.76946000  0.43813600  1
  H  2200  1  0.04555910  0.78710300  0.37664000  1
  H  2203  1  0.03969910  0.78048900  0.34195100  1
  H  2204  1  0.97856200  0.81051700  0.41222100  1
  H  2209  1  0.07019710  0.76361600  0.41985600  1
  H  2210  1  0.03083810  0.78782400  0.30813600  1
  H  2211  1  0.97291600  0.85834100  0.33692600  1
  H  2212  1  0.98002700  0.78860800  0.44303900  1
  H  2219  1  0.48923000  0.09561400  0.12693700  1
  H  2220  1  0.49177600  0.09253100  0.19235100  1
  H  2227  1  0.53518200  0.15354100  0.06806500  1
  H  2228  1  0.54619400  0.13552400  0.12951200  1
  H  2231  1  0.53990000  0.14259600  0.16428000  1
  H  2232  1  0.47874900  0.11359500  0.09437900  1
  H  2237  1  0.57122400  0.15846700  0.08641900  1
  H  2238  1  0.53040200  0.13538800  0.19811500  1
  H  2239  1  0.47273600  0.06501300  0.16934200  1
  H  2240  1  0.48030700  0.13469700  0.06356900  1
  H  2247  1  0.73995300  0.08771200  0.62654300  1
  H  2248  1  0.74712100  0.02248900  0.62907700  1
  H  2255  1  0.78024400  0.14713900  0.56536400  1
  H  2256  1  0.79318300  0.08662000  0.58374100  1
  H  2259  1  0.78695600  0.05152700  0.57477200  1
  H  2260  1  0.72211800  0.11967800  0.60540100  1
  H  2265  1  0.81692100  0.13016200  0.56066500  1
  H  2266  1  0.77373100  0.01680300  0.57919000  1
  H  2267  1  0.73718500  0.04536800  0.66063500  1
  H  2268  1  0.72694100  0.15241100  0.58622300  1
  H  2275  1  0.23981500  0.83847800  0.88219100  1
  H  2276  1  0.24703200  0.90369400  0.88029800  1
  H  2283  1  0.27926600  0.77831200  0.94353700  1
  H  2284  1  0.29265400  0.83897700  0.92581200  1
  H  2287  1  0.28687700  0.87413500  0.93424400  1
  H  2288  1  0.22165400  0.80576200  0.90295300  1
  H  2293  1  0.31582700  0.79546500  0.94921600  1
  H  2294  1  0.27382000  0.90897200  0.93011000  1
  H  2295  1  0.23760600  0.88114500  0.84854200  1
  H  2296  1  0.22652300  0.77307300  0.92146200  1
  H  2303  1  0.99036800  0.59056200  0.37741000  1
  H  2304  1  0.99860600  0.59002400  0.31258200  1
  H  2311  1  0.02695110  0.64821700  0.44084800  1
  H  2312  1  0.04330810  0.63221700  0.37981600  1
  H  2315  1  0.03755210  0.64567400  0.34442700  1
  H  2316  1  0.97102600  0.60925400  0.40742200  1
  H  2321  1  0.06437110  0.65145200  0.42776200  1
  H  2322  1  0.02710910  0.63894100  0.30825200  1
  H  2323  1  0.98792500  0.55791200  0.33403300  1
  H  2324  1  0.97185000  0.63021700  0.44036600  1
  H  2331  1  0.49063200  0.33241400  0.12814600  1
  H  2332  1  0.49855500  0.33296200  0.19300800  1
  H  2339  1  0.52669300  0.27432200  0.06498300  1
  H  2340  1  0.54350400  0.29061500  0.12580800  1
  H  2343  1  0.53763100  0.27725800  0.16121000  1
  H  2344  1  0.47107800  0.31360300  0.09858000  1
  H  2349  1  0.56457600  0.27170500  0.07796700  1
  H  2350  1  0.52703100  0.28400500  0.19739600  1
  H  2351  1  0.48758900  0.36503100  0.17156000  1
  H  2352  1  0.47155900  0.29239300  0.06587000  1
  H  2359  1  0.34294200  0.08661500  0.88277600  1
  H  2360  1  0.33602900  0.02136500  0.88152800  1
  H  2367  1  0.30311800  0.14680200  0.94314700  1
  H  2368  1  0.29001700  0.08617600  0.92564900  1
  H  2371  1  0.29635700  0.05212400  0.93526500  1
  H  2372  1  0.36087100  0.11895900  0.90303300  1
  H  2377  1  0.26645000  0.13004600  0.94817300  1
  H  2378  1  0.30234100  0.01793300  0.92747600  1
  H  2379  1  0.34552900  0.04365200  0.84966800  1
  H  2380  1  0.35647200  0.15170000  0.92199000  1
  H  2387  1  0.84336400  0.83910600  0.62587100  1
  H  2388  1  0.83590200  0.90431900  0.62722100  1
  H  2395  1  0.80294000  0.77850100  0.56551800  1
  H  2396  1  0.79031200  0.83933300  0.58298800  1
  H  2399  1  0.79624600  0.87346100  0.57381300  1
  H  2400  1  0.86123700  0.80570300  0.60506200  1
  H  2405  1  0.76645500  0.79586000  0.56017500  1
  H  2406  1  0.80203000  0.90773900  0.58156400  1
  H  2407  1  0.84500300  0.88191800  0.65921600  1
  H  2408  1  0.85573300  0.77274500  0.58673000  1
  H  2415  1  0.09238810  0.59124000  0.12944600  1
  H  2416  1  0.08429710  0.59160300  0.19429300  1
  H  2423  1  0.05600010  0.64833500  0.06524100  1
  H  2424  1  0.03952710  0.63270800  0.12639000  1
  H  2427  1  0.04560110  0.64704400  0.16058200  1
  H  2428  1  0.11169200  0.60938500  0.09918400  1
  H  2433  1  0.01843310  0.65168100  0.07821300  1
  H  2434  1  0.05007910  0.63699500  0.19637500  1
  H  2435  1  0.09498210  0.55928100  0.17324000  1
  H  2436  1  0.11119700  0.63039500  0.06619500  1
  H  2443  1  0.59266600  0.33147400  0.37616800  1
  H  2444  1  0.58427600  0.33107700  0.31135600  1
  H  2451  1  0.55571000  0.27478300  0.44068300  1
  H  2452  1  0.53985800  0.28981900  0.37923800  1
  H  2455  1  0.54575300  0.27567000  0.34500200  1
  H  2456  1  0.61173500  0.31352500  0.40714900  1
  H  2461  1  0.51827100  0.27109700  0.42713900  1
  H  2462  1  0.55015200  0.28569800  0.30923600  1
  H  2463  1  0.59434700  0.36341800  0.33244700  1
  H  2464  1  0.61074200  0.29282600  0.44041900  1
  H  2471  1  0.84301200  0.83847000  0.38584900  1
  H  2472  1  0.83504800  0.90342400  0.38479000  1
  H  2479  1  0.80294800  0.77611800  0.44234500  1
  H  2480  1  0.78954100  0.83748100  0.42707100  1
  H  2483  1  0.79593600  0.87188300  0.44068400  1
  H  2484  1  0.86167800  0.80621900  0.40579900  1
  H  2489  1  0.76618300  0.79069500  0.44569000  1
  H  2490  1  0.80633800  0.90775100  0.43362600  1
  H  2491  1  0.84909400  0.88362200  0.35382600  1
  H  2492  1  0.85738900  0.77291900  0.42396700  1
  H  2499  1  0.34251100  0.08754200  0.12300400  1
  H  2500  1  0.33449200  0.02261100  0.12441600  1
  H  2507  1  0.30244800  0.14976300  0.06704700  1
  H  2508  1  0.28902100  0.08827500  0.08222300  1
  H  2511  1  0.29571300  0.05393900  0.06816700  1
  H  2512  1  0.36128600  0.11841700  0.10276400  1
  H  2517  1  0.26491100  0.13479600  0.06481900  1
  H  2518  1  0.30613200  0.01796400  0.07537500  1
  H  2519  1  0.34566400  0.04426600  0.15619000  1
  H  2520  1  0.35719500  0.15225800  0.08450300  1
  H  2527  1  0.59363200  0.33135700  0.62906200  1
  H  2528  1  0.58517400  0.33281800  0.69393700  1
  H  2535  1  0.55262600  0.27566900  0.56647200  1
  H  2536  1  0.53927800  0.29135500  0.62797700  1
  H  2539  1  0.54543400  0.27735000  0.66271200  1
  H  2540  1  0.61173300  0.31126500  0.59748100  1
  H  2545  1  0.51578300  0.27292600  0.58105300  1
  H  2546  1  0.55597000  0.28429700  0.69863700  1
  H  2547  1  0.59857600  0.36399000  0.67307600  1
  H  2548  1  0.60680500  0.29383600  0.56341200  1
  H  2555  1  0.09321010  0.59419600  0.87836200  1
  H  2556  1  0.08505610  0.59338100  0.81344300  1
  H  2563  1  0.05315210  0.65127800  0.94040500  1
  H  2564  1  0.03943910  0.63484900  0.87934200  1
  H  2567  1  0.04607910  0.64918100  0.84509700  1
  H  2568  1  0.11162500  0.61424100  0.90991500  1
  H  2573  1  0.01575610  0.65276500  0.92599100  1
  H  2574  1  0.05642610  0.64230400  0.80911700  1
  H  2575  1  0.09653810  0.56155200  0.83439700  1
  H  2576  1  0.10779400  0.63314900  0.94319700  1
  H  2583  1  0.23983600  0.83897400  0.12182900  1
  H  2584  1  0.24792900  0.90391400  0.12233500  1
  H  2591  1  0.28015100  0.77571600  0.06697900  1
  H  2592  1  0.29334100  0.83754700  0.08122600  1
  H  2595  1  0.28686500  0.87126600  0.06667100  1
  H  2596  1  0.22123300  0.80695800  0.10230900  1
  H  2601  1  0.31689100  0.79047700  0.06333800  1
  H  2602  1  0.28246200  0.90668200  0.07721500  1
  H  2603  1  0.23482700  0.88367600  0.15372900  1
  H  2604  1  0.22614300  0.77264800  0.08532100  1
  H  2611  1  0.73999000  0.08617100  0.38606700  1
  H  2612  1  0.74806400  0.02123500  0.38612700  1
  H  2619  1  0.77976100  0.14900200  0.44181300  1
  H  2620  1  0.79320700  0.08756100  0.42700300  1
  H  2623  1  0.78629200  0.05435900  0.44203500  1
  H  2624  1  0.72128800  0.11805700  0.40551800  1
  H  2629  1  0.81709000  0.13432700  0.44445200  1
  H  2630  1  0.78201000  0.01892200  0.43175700  1
  H  2631  1  0.73669900  0.04169200  0.35407100  1
  H  2632  1  0.72504400  0.15162000  0.42399800  1
  H  2639  1  0.48949800  0.33104900  0.87766500  1
  H  2640  1  0.49790900  0.33146200  0.81276900  1
  H  2647  1  0.53048800  0.27564700  0.94065600  1
  H  2648  1  0.54350400  0.29133300  0.87911200  1
  H  2651  1  0.53674200  0.27587200  0.84592000  1
  H  2652  1  0.47140800  0.31133400  0.90950700  1
  H  2657  1  0.56751000  0.27381800  0.92609000  1
  H  2658  1  0.53218300  0.28604500  0.81035800  1
  H  2659  1  0.48734700  0.36347100  0.83417800  1
  H  2660  1  0.47572200  0.29306200  0.94342400  1
  H  2667  1  0.98900300  0.59550900  0.63056900  1
  H  2668  1  0.99719000  0.59533300  0.69550500  1
  H  2675  1  0.02984010  0.65116700  0.56733000  1
  H  2676  1  0.04281110  0.63604000  0.62894000  1
  H  2679  1  0.03636010  0.65068600  0.66234000  1
  H  2680  1  0.97085800  0.61488000  0.59744800  1
  H  2685  1  0.06658810  0.65423100  0.58213100  1
  H  2686  1  0.03223610  0.64011800  0.69766300  1
  H  2687  1  0.98319200  0.56420700  0.67619600  1
  H  2688  1  0.97539400  0.63282500  0.56402100  1
  H  2695  1  0.33068600  0.63991300  0.98632500  1
  H  2698  1  0.28466900  0.54962200  0.03091400  1
  H  2699  1  0.27945500  0.57629900  0.03610200  1
  H  2700  1  0.30462600  0.56461500  0.04393900  1
  H  2709  1  0.83063000  0.28308300  0.51887900  1
  H  2712  1  0.78475400  0.37338300  0.47411100  1
  H  2713  1  0.77935200  0.34668300  0.46922200  1
  H  2714  1  0.80446300  0.35818900  0.46098100  1
  H  2723  1  0.57789100  0.23137100  0.93250100  1
  H  2726  1  0.53493900  0.18455600  0.84238800  1
  H  2727  1  0.52918800  0.18048500  0.86919000  1
  H  2728  1  0.55428600  0.17157200  0.85819800  1
  H  2737  1  0.07788610  0.69552300  0.57654000  1
  H  2740  1  0.03495410  0.74216100  0.66666667  1
  H  2741  1  0.02938310  0.74651200  0.63986600  1
  H  2742  1  0.05454710  0.75504200  0.65103300  1
  H  2751  1  0.75226000  0.64019900  0.51868300  1
  H  2754  1  0.79788800  0.54956500  0.47500500  1
  H  2755  1  0.80320700  0.57621900  0.46965200  1
  H  2756  1  0.77802500  0.56457800  0.46179700  1
  H  2765  1  0.25217300  0.28283800  0.98636100  1
  H  2768  1  0.29781000  0.37344100  0.03016300  1
  H  2769  1  0.30330200  0.34676100  0.03522600  1
  H  2770  1  0.27818600  0.35824000  0.04348100  1
  H  2779  1  0.50490500  0.23130600  0.57589400  1
  H  2782  1  0.54743900  0.18536600  0.66666667  1
  H  2783  1  0.55337200  0.18122700  0.63997100  1
  H  2784  1  0.52823000  0.17225500  0.65089500  1
  H  2793  1  0.00509908  0.69502500  0.93263800  1
  H  2796  1  0.04769110  0.74169400  0.84236800  1
  H  2797  1  0.05332010  0.74595400  0.86915100  1
  H  2798  1  0.02820310  0.75468600  0.85798300  1
  H  2807  1  0.00523308  0.69251300  0.07422800  1
  H  2810  1  0.04831710  0.73765700  0.16515000  1
  H  2811  1  0.05371510  0.74231100  0.13837900  1
  H  2812  1  0.02873710  0.75089400  0.14986100  1
  H  2821  1  0.50497900  0.23059700  0.43103600  1
  H  2824  1  0.54784400  0.18517500  0.34019200  1
  H  2825  1  0.55355100  0.18090500  0.36697200  1
  H  2826  1  0.52855000  0.17193100  0.35582900  1
  H  2835  1  0.07731610  0.69224100  0.43139900  1
  H  2838  1  0.03518610  0.73716000  0.33996000  1
  H  2839  1  0.02930710  0.74135300  0.36671400  1
  H  2840  1  0.05431010  0.75051000  0.35565700  1
  H  2849  1  0.57763600  0.23052700  0.07393800  1
  H  2852  1  0.53486700  0.18584700  0.16507800  1
  H  2853  1  0.52945900  0.18133000  0.13829100  1
  H  2854  1  0.55434400  0.17246300  0.14981300  1
  H  2863  1  0.82650400  0.14160700  0.48785200  1
  H  2866  1  0.78484600  0.05009500  0.53334800  1
  H  2867  1  0.77845300  0.07666900  0.53790300  1
  H  2868  1  0.80389300  0.06607300  0.54651000  1
  H  2877  1  0.32694200  0.78482300  0.02098800  1
  H  2880  1  0.28519900  0.87667400  0.97589400  1
  H  2881  1  0.27843200  0.85017700  0.97141100  1
  H  2882  1  0.30402400  0.86041700  0.96278300  1
  H  2891  1  0.25612600  0.14186500  0.02057300  1
  H  2894  1  0.29761500  0.04983000  0.97644500  1
  H  2895  1  0.30433000  0.07636100  0.97190900  1
  H  2896  1  0.27890000  0.06600100  0.96300800  1
  H  2905  1  0.75628600  0.78472300  0.48813900  1
  H  2908  1  0.79745400  0.87665100  0.53249300  1
  H  2909  1  0.80402200  0.85010800  0.53715300  1
  H  2910  1  0.77852400  0.86057400  0.54578200  1
  H  2919  1  0.26325800  0.46492900  0.12363800  1
  H  2922  1  0.35065400  0.45261900  0.05285500  1
  H  2923  1  0.33006800  0.43409300  0.05773000  1
  H  2924  1  0.34912300  0.44062000  0.07772000  1
  H  2933  1  0.76334500  0.45843900  0.38140300  1
  H  2936  1  0.85070900  0.47036100  0.45228700  1
  H  2937  1  0.83028400  0.48903700  0.44733700  1
  H  2938  1  0.84927400  0.48227000  0.42736700  1
  H  2947  1  0.51335100  0.09239800  0.75772200  1
  H  2950  1  0.60080000  0.16316700  0.74554400  1
  H  2951  1  0.58023800  0.15833300  0.72699600  1
  H  2952  1  0.59930900  0.13834200  0.73354700  1
  H  2961  1  0.01326110  0.83443300  0.75091200  1
  H  2964  1  0.10074800  0.76376000  0.76347000  1
  H  2965  1  0.08003210  0.76852800  0.78187300  1
  H  2966  1  0.09917210  0.78853500  0.77554900  1
  H  2975  1  0.31933500  0.45763800  0.88521400  1
  H  2978  1  0.23121200  0.47099400  0.95478800  1
  H  2979  1  0.25122000  0.49010500  0.94995900  1
  H  2980  1  0.23341000  0.48196900  0.92948300  1
  H  2989  1  0.81945800  0.46575400  0.61983900  1
  H  2992  1  0.73131700  0.45200500  0.55034100  1
  H  2993  1  0.75133800  0.43293500  0.55524600  1
  H  2994  1  0.73354900  0.44116800  0.57570000  1
  H  3003  1  0.06945110  0.83053900  0.25002500  1
  H  3006  1  0.98203400  0.75961700  0.26142300  1
  H  3007  1  0.00254908  0.76445200  0.28002200  1
  H  3008  1  0.98336300  0.78437300  0.27356900  1
  H  3017  1  0.56962700  0.09239300  0.25635100  1
  H  3020  1  0.48218700  0.16313500  0.24394900  1
  H  3021  1  0.50294000  0.15835800  0.22559200  1
  H  3022  1  0.48370500  0.13840000  0.23179300  1
  H  3031  1  0.76331200  0.96568200  0.62458700  1
  H  3034  1  0.85133100  0.95472000  0.55429100  1
  H  3035  1  0.83095300  0.93592900  0.55895300  1
  H  3036  1  0.84958500  0.94283100  0.57919400  1
  H  3045  1  0.26312600  0.96011100  0.88466500  1
  H  3048  1  0.35116600  0.97179000  0.95486100  1
  H  3049  1  0.33063000  0.99038100  0.95008800  1
  H  3050  1  0.34939300  0.98358200  0.92992200  1
  H  3059  1  0.01329710  0.59345000  0.25681800  1
  H  3062  1  0.10222400  0.66207100  0.24315900  1
  H  3063  1  0.08207810  0.65750800  0.22415100  1
  H  3064  1  0.09952510  0.63675800  0.23242500  1
  H  3073  1  0.51337900  0.32947400  0.24885100  1
  H  3076  1  0.60229500  0.26078200  0.26207400  1
  H  3077  1  0.58221100  0.26526300  0.28116800  1
  H  3078  1  0.59961000  0.28605700  0.27291000  1
  H  3087  1  0.81964500  0.95929600  0.38813600  1
  H  3090  1  0.73094400  0.97220500  0.45720300  1
  H  3091  1  0.75119600  0.99112400  0.45263500  1
  H  3092  1  0.73343700  0.98330000  0.43199000  1
  H  3101  1  0.31938600  0.96642600  0.12093600  1
  H  3104  1  0.23062600  0.95400500  0.05191200  1
  H  3105  1  0.25057300  0.93479300  0.05654800  1
  H  3106  1  0.23305300  0.94306400  0.07721000  1
  H  3115  1  0.56960100  0.32973300  0.75010400  1
  H  3118  1  0.48085100  0.26084600  0.76360300  1
  H  3119  1  0.50106800  0.26541300  0.78254000  1
  H  3120  1  0.48341500  0.28609600  0.77450900  1
  H  3129  1  0.06946710  0.59701700  0.75746900  1
  H  3132  1  0.98067300  0.66605200  0.74513800  1
  H  3133  1  0.00085108  0.66155900  0.72612800  1
  H  3134  1  0.98302500  0.64092300  0.73391100  1
  H  3143  1  0.15023000  0.54167700  0.17461900  1
  H  3146  1  0.18877700  0.61521500  0.10210700  1
  H  3147  1  0.20024000  0.58987700  0.10373000  1
  H  3148  1  0.20000600  0.60676900  0.12623400  1
  H  3157  1  0.65021700  0.38136300  0.33059500  1
  H  3160  1  0.68884600  0.30766100  0.40290300  1
  H  3161  1  0.69998500  0.33314400  0.40129800  1
  H  3162  1  0.70012100  0.31620000  0.37882100  1
  H  3171  1  0.40159800  0.04179800  0.83353500  1
  H  3174  1  0.43886300  0.11364700  0.90832800  1
  H  3175  1  0.44995500  0.11227300  0.88282600  1
  H  3176  1  0.45059200  0.08978900  0.89984300  1
  H  3185  1  0.90149400  0.88485100  0.67562500  1
  H  3188  1  0.93891200  0.81316600  0.60072700  1
  H  3189  1  0.95014300  0.81448300  0.62617900  1
  H  3190  1  0.95062100  0.83702300  0.60923200  1
  H  3199  1  0.93265900  0.54117200  0.33117700  1
  H  3202  1  0.89374300  0.61514300  0.40272100  1
  H  3203  1  0.88242600  0.58972400  0.40131200  1
  H  3204  1  0.88239700  0.60658800  0.37870500  1
  H  3213  1  0.43270000  0.38174400  0.17396600  1
  H  3216  1  0.39366100  0.30776100  0.10246600  1
  H  3217  1  0.38258400  0.33333333  0.10383700  1
  H  3218  1  0.38229000  0.31641400  0.12644100  1
  H  3227  1  0.68140200  0.04220100  0.67604500  1
  H  3230  1  0.64363900  0.11351700  0.60077400  1
  H  3231  1  0.63246000  0.11231700  0.62626200  1
  H  3232  1  0.63191700  0.08970200  0.60950500  1
  H  3241  1  0.18137000  0.88454300  0.83285500  1
  H  3244  1  0.14359800  0.81343000  0.90830900  1
  H  3245  1  0.13266100  0.81464000  0.88271400  1
  H  3246  1  0.13185600  0.83722000  0.89952300  1
  H  3255  1  0.43138800  0.38147600  0.83288200  1
  H  3258  1  0.39393000  0.30731100  0.90498600  1
  H  3259  1  0.38235100  0.33262800  0.90361100  1
  H  3260  1  0.38256100  0.31592800  0.88096600  1
  H  3269  1  0.93226600  0.54493700  0.67424200  1
  H  3272  1  0.89433800  0.61493700  0.59943400  1
  H  3273  1  0.88113700  0.59044500  0.60181100  1
  H  3274  1  0.88437300  0.60703500  0.62425900  1
  H  3283  1  0.18244400  0.88258500  0.17141900  1
  H  3286  1  0.14374800  0.80914600  0.09920600  1
  H  3287  1  0.13195600  0.81098400  0.12437000  1
  H  3288  1  0.13273900  0.83342500  0.10736300  1
  H  3297  1  0.68366300  0.04115900  0.33507400  1
  H  3300  1  0.64335100  0.11419400  0.40654200  1
  H  3301  1  0.63144700  0.11235600  0.38141700  1
  H  3302  1  0.63267900  0.08981000  0.39827000  1
  H  3311  1  0.65184200  0.38084100  0.67305000  1
  H  3314  1  0.68873700  0.30795600  0.60011200  1
  H  3315  1  0.70122200  0.33285100  0.60181100  1
  H  3316  1  0.69960400  0.31617500  0.62445800  1
  H  3325  1  0.15029600  0.54314400  0.83292300  1
  H  3328  1  0.18927400  0.61539800  0.90521000  1
  H  3329  1  0.20158000  0.59040400  0.90355300  1
  H  3330  1  0.19979100  0.60693500  0.88080400  1
  H  3339  1  0.89931300  0.88278300  0.33560400  1
  H  3342  1  0.93920200  0.80872400  0.40591900  1
  H  3343  1  0.95200000  0.81094300  0.38123400  1
  H  3344  1  0.94924800  0.83345000  0.39783300  1
  H  3353  1  0.40011700  0.04223300  0.17310600  1
  H  3356  1  0.43987000  0.11335300  0.09858400  1
  H  3357  1  0.45064500  0.11219200  0.12423400  1
  H  3358  1  0.45155000  0.08958800  0.10750100  1
  H  3367  1  0.22320600  0.69608600  0.09687600  1
  H  3370  1  0.29022600  0.74413500  0.02165200  1
  H  3371  1  0.29043200  0.74641700  0.04900500  1
  H  3372  1  0.27010100  0.75940900  0.03366800  1
  H  3381  1  0.72251700  0.22831400  0.40920200  1
  H  3384  1  0.79150600  0.18265900  0.48363700  1
  H  3385  1  0.79038100  0.17999700  0.45633000  1
  H  3386  1  0.77166800  0.16611700  0.47286700  1
  H  3395  1  0.47415600  0.12035900  0.98844600  1
  H  3398  1  0.53880800  0.19900500  0.03538600  1
  H  3399  1  0.54204400  0.17173100  0.03806600  1
  H  3400  1  0.51920100  0.18481600  0.04946400  1
  H  3409  1  0.97426200  0.80659200  0.51869400  1
  H  3412  1  0.04044710  0.72815800  0.47366500  1
  H  3413  1  0.04269010  0.75540000  0.46984800  1
  H  3414  1  0.02012410  0.74109500  0.45933500  1
  H  3423  1  0.86025100  0.69583600  0.40907900  1
  H  3426  1  0.79160800  0.74227100  0.48374800  1
  H  3427  1  0.79203800  0.74547000  0.45648100  1
  H  3428  1  0.81214000  0.75785100  0.47268100  1
  H  3437  1  0.36027100  0.22898900  0.09621300  1
  H  3440  1  0.29305300  0.18050400  0.02167200  1
  H  3441  1  0.29254900  0.17925300  0.04910600  1
  H  3442  1  0.31255400  0.16505300  0.03445600  1
  H  3451  1  0.60823700  0.11979200  0.51911300  1
  H  3454  1  0.54320200  0.19855600  0.47254600  1
  H  3455  1  0.54078600  0.17137900  0.46859900  1
  H  3456  1  0.56367200  0.18550200  0.45857900  1
  H  3465  1  0.10841000  0.80635500  0.98863900  1
  H  3468  1  0.04258010  0.72744000  0.03340100  1
  H  3469  1  0.04031610  0.75479200  0.03629200  1
  H  3470  1  0.06215910  0.74063900  0.04836300  1
  H  3479  1  0.36095500  0.22773800  0.91107300  1
  H  3482  1  0.29238500  0.17973600  0.98511900  1
  H  3483  1  0.29264100  0.17758400  0.95774000  1
  H  3484  1  0.31277100  0.16453900  0.97341900  1
  H  3493  1  0.86087100  0.69694400  0.59500400  1
  H  3496  1  0.79405500  0.74677600  0.51984800  1
  H  3497  1  0.79323900  0.75074400  0.54693800  1
  H  3498  1  0.81583200  0.75993900  0.53176500  1
  H  3507  1  0.72136100  0.22810600  0.59415600  1
  H  3510  1  0.78821400  0.17755300  0.51970300  1
  H  3511  1  0.78987100  0.17524900  0.54698800  1
  H  3512  1  0.76741600  0.16414800  0.53292600  1
  H  3521  1  0.22258400  0.69696600  0.91034600  1
  H  3524  1  0.29061800  0.74431300  0.98515300  1
  H  3525  1  0.29019800  0.74756700  0.95788500  1
  H  3526  1  0.26964400  0.75925300  0.97402200  1
  H  3535  1  0.96881100  0.61758900  0.48872600  1
  H  3538  1  0.03815910  0.69432000  0.53284900  1
  H  3539  1  0.04022910  0.66718700  0.53736100  1
  H  3540  1  0.01762610  0.68180100  0.54730300  1
  H  3549  1  0.46857900  0.30535100  0.01822800  1
  H  3552  1  0.53659300  0.22841200  0.97231900  1
  H  3553  1  0.53956400  0.25561500  0.96886500  1
  H  3554  1  0.51666600  0.24210900  0.95814000  1
  H  3563  1  0.11405500  0.61784400  0.01809500  1
  H  3566  1  0.04488310  0.69492900  0.97407300  1
  H  3567  1  0.04283010  0.66767600  0.97039900  1
  H  3568  1  0.06487310  0.68219800  0.95917700  1
  H  3577  1  0.61334300  0.30613100  0.48853600  1
  H  3580  1  0.54539000  0.22873400  0.53388400  1
  H  3581  1  0.54318900  0.25586500  0.53820400  1
  H  3582  1  0.56586500  0.24144200  0.54816500  1
  C  1  1  0.90266800  0.57557600  0.09723200  1
  C  2  1  0.88936300  0.57481400  0.11523800  1
  C  3  1  0.88290200  0.55587400  0.12489700  1
  C  4  1  0.89160400  0.53683700  0.11768400  1
  C  5  1  0.90543600  0.53608500  0.10020400  1
  C  6  1  0.91007200  0.55556600  0.09009300  1
  C  9  1  0.90858900  0.59582700  0.08768500  1
  C  10  1  0.89491100  0.61390800  0.08622500  1
  C  11  1  0.90118900  0.63367400  0.07763000  1
  C  12  1  0.92210600  0.63470400  0.06910500  1
  C  13  1  0.93623700  0.61749400  0.06966100  1
  C  14  1  0.92963900  0.59877600  0.07953100  1
  C  21  1  0.95416200  0.61815500  0.05692400  1
  C  22  1  0.91380800  0.51677700  0.09292000  1
  C  23  1  0.86637700  0.55539300  0.13951300  1
  C  24  1  0.88757800  0.65158000  0.07698500  1
  C  29  1  0.40294800  0.34787200  0.40766100  1
  C  30  1  0.38959400  0.34854100  0.38968200  1
  C  31  1  0.38291200  0.36744200  0.38011500  1
  C  32  1  0.39154100  0.38650800  0.38734200  1
  C  33  1  0.40545700  0.38729900  0.40476900  1
  C  34  1  0.41023800  0.36786300  0.41486400  1
  C  37  1  0.40889100  0.32772500  0.41727200  1
  C  38  1  0.39499200  0.30987400  0.41894500  1
  C  39  1  0.40106800  0.29018300  0.42770800  1
  C  40  1  0.42206100  0.28887800  0.43601600  1
  C  41  1  0.43641300  0.30589500  0.43525000  1
  C  42  1  0.42994300  0.32466800  0.42540100  1
  C  49  1  0.45417500  0.30509800  0.44815400  1
  C  50  1  0.41377300  0.40659100  0.41207400  1
  C  51  1  0.36627500  0.36779700  0.36560100  1
  C  52  1  0.38710200  0.27264500  0.42868300  1
  C  57  1  0.15326200  0.11868900  0.86817200  1
  C  58  1  0.14008800  0.10059400  0.86764900  1
  C  59  1  0.13352900  0.09090400  0.84881400  1
  C  60  1  0.14196700  0.09818700  0.82967000  1
  C  61  1  0.15569500  0.11573500  0.82875200  1
  C  62  1  0.16046300  0.12587200  0.84812200  1
  C  65  1  0.15911400  0.12843900  0.88823200  1
  C  66  1  0.14514000  0.13012600  0.90601900  1
  C  67  1  0.15113900  0.13901700  0.92563900  1
  C  68  1  0.17210000  0.14742400  0.92691300  1
  C  69  1  0.18652900  0.14665600  0.90995700  1
  C  70  1  0.18013500  0.13665400  0.89127100  1
  C  77  1  0.20447700  0.15939400  0.91081900  1
  C  78  1  0.16386700  0.12307200  0.80940100  1
  C  79  1  0.11699100  0.07634100  0.84853700  1
  C  80  1  0.13719300  0.13985600  0.94319600  1
  C  85  1  0.65306700  0.80805200  0.64041200  1
  C  86  1  0.63996800  0.82619500  0.64103300  1
  C  87  1  0.63358700  0.83593800  0.65991200  1
  C  88  1  0.64206900  0.82861600  0.67901900  1
  C  89  1  0.65571500  0.81101700  0.67988300  1
  C  90  1  0.66034300  0.80087700  0.66046700  1
  C  93  1  0.65888300  0.79839800  0.62024100  1
  C  94  1  0.64506800  0.79695100  0.60227700  1
  C  95  1  0.65117000  0.78824900  0.58256000  1
  C  96  1  0.67207600  0.77969700  0.58142600  1
  C  97  1  0.68631300  0.78015200  0.59855400  1
  C  98  1  0.67985100  0.79005100  0.61726600  1
  C  105  1  0.70406500  0.76717300  0.59783100  1
  C  106  1  0.66394700  0.80369200  0.69924000  1
  C  107  1  0.61712100  0.85056900  0.66029500  1
  C  108  1  0.63738000  0.78756900  0.56480300  1
  C  113  1  0.46998000  0.57487200  0.40883400  1
  C  114  1  0.48314500  0.57394100  0.39076100  1
  C  115  1  0.48967200  0.55489700  0.38142400  1
  C  116  1  0.48119900  0.53588000  0.38908600  1
  C  117  1  0.46740000  0.53519400  0.40662600  1
  C  118  1  0.46272000  0.55488600  0.41629300  1
  C  121  1  0.46394100  0.59526200  0.41800300  1
  C  122  1  0.47756500  0.61339300  0.41927300  1
  C  123  1  0.47129600  0.63321300  0.42766800  1
  C  124  1  0.45032100  0.63433200  0.43603600  1
  C  125  1  0.43617100  0.61713600  0.43556000  1
  C  126  1  0.44284000  0.59832300  0.42597800  1
  C  133  1  0.41817000  0.61791200  0.44819500  1
  C  134  1  0.45765300  0.51610500  0.41333200  1
  C  135  1  0.50591100  0.55441400  0.36651200  1
  C  136  1  0.48498800  0.65106700  0.42825000  1
  C  141  1  0.96978100  0.34847100  0.09641300  1
  C  142  1  0.98297700  0.34931600  0.11447000  1
  C  143  1  0.98967500  0.36832100  0.12375800  1
  C  144  1  0.98124600  0.38736400  0.11610100  1
  C  145  1  0.96738700  0.38809900  0.09860000  1
  C  146  1  0.96261700  0.36844900  0.08891400  1
  C  149  1  0.96369500  0.32816600  0.08719600  1
  C  150  1  0.97745800  0.31018600  0.08573800  1
  C  151  1  0.97128500  0.29042900  0.07722400  1
  C  152  1  0.95023800  0.28913900  0.06905800  1
  C  153  1  0.93595300  0.30620600  0.06973200  1
  C  154  1  0.94257500  0.32505400  0.07927400  1
  C  161  1  0.91810500  0.30535600  0.05694600  1
  C  162  1  0.95769300  0.40718800  0.09187300  1
  C  163  1  0.00594700  0.36867600  0.13866200  1
  C  164  1  0.98514500  0.27278100  0.07642400  1
  C  169  1  0.21965700  0.11978600  0.64115700  1
  C  170  1  0.23267100  0.10161400  0.64207200  1
  C  171  1  0.23913600  0.09216800  0.66111500  1
  C  172  1  0.23086700  0.09986200  0.68016500  1
  C  173  1  0.21722100  0.11749300  0.68086100  1
  C  174  1  0.21251900  0.12720800  0.66116200  1
  C  177  1  0.21365100  0.12907400  0.62077700  1
  C  178  1  0.22727900  0.13028500  0.60264000  1
  C  179  1  0.22102300  0.13875900  0.58281500  1
  C  180  1  0.20011900  0.14731300  0.58172400  1
  C  181  1  0.18598400  0.14696100  0.59893700  1
  C  182  1  0.19261200  0.13724800  0.61773900  1
  C  189  1  0.16805200  0.15974400  0.59810600  1
  C  190  1  0.20758100  0.12421000  0.69996000  1
  C  191  1  0.25534500  0.07727200  0.66158600  1
  C  192  1  0.23463100  0.13921100  0.56489600  1
  C  197  1  0.71939700  0.80731300  0.86742600  1
  C  198  1  0.73242200  0.82548100  0.86661800  1
  C  199  1  0.73911500  0.83486200  0.84762600  1
  C  200  1  0.73093100  0.82715500  0.82853900  1
  C  201  1  0.71722000  0.80956000  0.82778300  1
  C  202  1  0.71239200  0.79983800  0.84742800  1
  C  205  1  0.71337700  0.79792900  0.88769900  1
  C  206  1  0.72722000  0.79652300  0.90561900  1
  C  207  1  0.72117200  0.78787200  0.92537100  1
  C  208  1  0.70021100  0.77948100  0.92671300  1
  C  209  1  0.68587500  0.77999700  0.90967800  1
  C  210  1  0.69235500  0.78973700  0.89083500  1
  C  217  1  0.66806100  0.76710600  0.91065800  1
  C  218  1  0.70767200  0.80279000  0.80868600  1
  C  219  1  0.75533900  0.84977200  0.84732400  1
  C  220  1  0.73512500  0.78709700  0.94293800  1
  C  225  1  0.96907100  0.34721300  0.91188400  1
  C  226  1  0.98225300  0.34825700  0.89379500  1
  C  227  1  0.98872200  0.36733000  0.88452600  1
  C  228  1  0.97959100  0.38606400  0.89202100  1
  C  229  1  0.96570100  0.38646000  0.90957000  1
  C  230  1  0.96152200  0.36686300  0.91978700  1
  C  233  1  0.96329800  0.32678700  0.92077600  1
  C  234  1  0.97763200  0.30931700  0.92266400  1
  C  235  1  0.97164800  0.28919400  0.93039800  1
  C  236  1  0.95004600  0.28687000  0.93678300  1
  C  237  1  0.93497700  0.30322100  0.93496100  1
  C  238  1  0.94174100  0.32282100  0.92697100  1
  C  245  1  0.91544100  0.30069000  0.94500000  1
  C  246  1  0.95685200  0.40569400  0.91653100  1
  C  247  1  0.00516100  0.36811000  0.86971300  1
  C  248  1  0.98598000  0.27193800  0.93129200  1
  C  253  1  0.46957000  0.57623500  0.59313000  1
  C  254  1  0.48283000  0.57498500  0.61116600  1
  C  255  1  0.48917800  0.55582100  0.62038200  1
  C  256  1  0.47988800  0.53717400  0.61288200  1
  C  257  1  0.46591900  0.53691600  0.59540000  1
  C  258  1  0.46184400  0.55659600  0.58525700  1
  C  261  1  0.46373400  0.59682300  0.58443600  1
  C  262  1  0.47780000  0.61458800  0.58288900  1
  C  263  1  0.47161900  0.63477700  0.57535700  1
  C  264  1  0.45007900  0.63682800  0.56871400  1
  C  265  1  0.43526700  0.62021900  0.57015100  1
  C  266  1  0.44220700  0.60063300  0.57803500  1
  C  273  1  0.41586900  0.62257100  0.55988300  1
  C  274  1  0.45690900  0.51770500  0.58849100  1
  C  275  1  0.50548300  0.55486100  0.63532800  1
  C  276  1  0.48565100  0.65235700  0.57475100  1
  C  281  1  0.71979400  0.80389900  0.13957700  1
  C  282  1  0.73303700  0.82194600  0.13998300  1
  C  283  1  0.73950900  0.83178000  0.15879600  1
  C  284  1  0.73093800  0.82466200  0.17795600  1
  C  285  1  0.71727400  0.80706900  0.17896000  1
  C  286  1  0.71262200  0.79676700  0.15966100  1
  C  289  1  0.71338400  0.79433300  0.11960500  1
  C  290  1  0.72679100  0.79236500  0.10138900  1
  C  291  1  0.71982000  0.78385900  0.08184400  1
  C  292  1  0.69851200  0.77628200  0.08135600  1
  C  293  1  0.68474500  0.77701000  0.09876300  1
  C  294  1  0.69203900  0.78670300  0.11722900  1
  C  301  1  0.66666667  0.76446200  0.09838000  1
  C  302  1  0.70896800  0.79985200  0.19830500  1
  C  303  1  0.75591100  0.84650200  0.15906800  1
  C  304  1  0.73272700  0.78313400  0.06344400  1
  C  309  1  0.22008400  0.11926400  0.36690600  1
  C  310  1  0.23337900  0.10124500  0.36633600  1
  C  311  1  0.23969000  0.09136900  0.34745800  1
  C  312  1  0.23094600  0.09845400  0.32835600  1
  C  313  1  0.21725300  0.11601900  0.32741900  1
  C  314  1  0.21275100  0.12629700  0.34679800  1
  C  317  1  0.21367600  0.12872500  0.38705000  1
  C  318  1  0.22687000  0.13057600  0.40548300  1
  C  319  1  0.21977800  0.13895600  0.42511600  1
  C  320  1  0.19848300  0.14655000  0.42547100  1
  C  321  1  0.18495300  0.14605000  0.40785700  1
  C  322  1  0.19237200  0.13646500  0.38937100  1
  C  329  1  0.16714900  0.15899200  0.40797000  1
  C  330  1  0.20881000  0.12318800  0.30805300  1
  C  331  1  0.25607000  0.07660000  0.34700900  1
  C  332  1  0.23254800  0.13993100  0.44369500  1
  C  337  1  0.40287800  0.34785500  0.59210900  1
  C  338  1  0.38988300  0.34914700  0.61028600  1
  C  339  1  0.38344600  0.36835700  0.61922400  1
  C  340  1  0.39243600  0.38702200  0.61127400  1
  C  341  1  0.40624300  0.38726100  0.59364000  1
  C  342  1  0.41036700  0.36744200  0.58384800  1
  C  345  1  0.40870300  0.32724500  0.58367600  1
  C  346  1  0.39448500  0.30963800  0.58212300  1
  C  347  1  0.40053200  0.28944100  0.57467900  1
  C  348  1  0.42216000  0.28712300  0.56839200  1
  C  349  1  0.43716500  0.30354400  0.57004000  1
  C  350  1  0.43029600  0.32322600  0.57767100  1
  C  357  1  0.45673300  0.30100100  0.56007100  1
  C  358  1  0.41627100  0.40625200  0.58706400  1
  C  359  1  0.36738600  0.36920400  0.63442000  1
  C  360  1  0.38626300  0.27210400  0.57400500  1
  C  365  1  0.90263900  0.57556300  0.91305300  1
  C  366  1  0.88952100  0.57417200  0.89495100  1
  C  367  1  0.88306300  0.55493300  0.88604600  1
  C  368  1  0.89216100  0.53629700  0.89395400  1
  C  369  1  0.90606700  0.53609400  0.91151500  1
  C  370  1  0.91020200  0.55595100  0.92126200  1
  C  373  1  0.90859400  0.59627100  0.92135400  1
  C  374  1  0.89463500  0.61413200  0.92270500  1
  C  375  1  0.90088900  0.63438800  0.92994600  1
  C  376  1  0.92248900  0.63644500  0.93637300  1
  C  377  1  0.93723900  0.61978200  0.93502300  1
  C  378  1  0.93017800  0.60011700  0.92750400  1
  C  385  1  0.95666500  0.62213800  0.94521800  1
  C  386  1  0.91615700  0.51708800  0.91802500  1
  C  387  1  0.86694400  0.55400300  0.87088200  1
  C  388  1  0.88687900  0.65200500  0.93051200  1
  C  393  1  0.65179300  0.80289000  0.36603100  1
  C  394  1  0.63863100  0.82096900  0.36511700  1
  C  395  1  0.63221900  0.83045600  0.34603700  1
  C  396  1  0.64070300  0.82291500  0.32701500  1
  C  397  1  0.65440200  0.80532600  0.32632400  1
  C  398  1  0.65897900  0.79552200  0.34600500  1
  C  401  1  0.65834100  0.79380600  0.38637600  1
  C  402  1  0.64533400  0.79235300  0.40498900  1
  C  403  1  0.65253600  0.78417900  0.42470300  1
  C  404  1  0.67371500  0.77627600  0.42491700  1
  C  405  1  0.68715900  0.77655900  0.40724800  1
  C  406  1  0.67966500  0.78609700  0.38873100  1
  C  413  1  0.70520800  0.76388200  0.40752900  1
  C  414  1  0.66430900  0.79879400  0.30728300  1
  C  415  1  0.61608000  0.84543900  0.34544300  1
  C  416  1  0.63999100  0.78378700  0.44346300  1
  C  421  1  0.15220300  0.12016900  0.14005600  1
  C  422  1  0.13911500  0.10204400  0.14065900  1
  C  423  1  0.13262100  0.09235100  0.15959100  1
  C  424  1  0.14099200  0.09977900  0.17873200  1
  C  425  1  0.15460800  0.11743500  0.17966700  1
  C  426  1  0.15924900  0.12744200  0.16012300  1
  C  429  1  0.15880000  0.12944600  0.11991000  1
  C  430  1  0.14551700  0.13149300  0.10159400  1
  C  431  1  0.15265400  0.13977600  0.08194500  1
  C  432  1  0.17413300  0.14687500  0.08137300  1
  C  433  1  0.18779500  0.14608900  0.09885600  1
  C  434  1  0.18026300  0.13673500  0.11745600  1
  C  441  1  0.20587200  0.15865800  0.09847600  1
  C  442  1  0.16430300  0.12400700  0.19878300  1
  C  443  1  0.11650800  0.07730400  0.15987600  1
  C  444  1  0.13983100  0.14067800  0.06346800  1
  C  449  1  0.40033800  0.07535800  0.59987900  1
  C  450  1  0.38977900  0.07424000  0.61950000  1
  C  451  1  0.38677900  0.05500600  0.63014700  1
  C  452  1  0.39438500  0.03631900  0.62130300  1
  C  453  1  0.40494500  0.03611700  0.60188300  1
  C  454  1  0.40750300  0.05575800  0.59157200  1
  C  457  1  0.40562000  0.09561000  0.59036000  1
  C  458  1  0.39139600  0.11333600  0.58863000  1
  C  459  1  0.39810800  0.13299800  0.57973100  1
  C  460  1  0.41945200  0.13380800  0.57205100  1
  C  461  1  0.43366600  0.11681900  0.57253800  1
  C  462  1  0.42686800  0.09837300  0.58250900  1
  C  469  1  0.45197100  0.11782100  0.56014400  1
  C  470  1  0.41340300  0.01727700  0.59389800  1
  C  471  1  0.37577500  0.05329500  0.64870500  1
  C  472  1  0.38561200  0.15170300  0.57860500  1
  C  477  1  0.90015200  0.85050800  0.90903700  1
  C  478  1  0.88959700  0.85186600  0.88941900  1
  C  479  1  0.88660800  0.87120600  0.87896500  1
  C  480  1  0.89423600  0.88980000  0.88797600  1
  C  481  1  0.90483500  0.88980800  0.90737300  1
  C  482  1  0.90736800  0.87005300  0.91749700  1
  C  485  1  0.90527300  0.83006500  0.91836400  1
  C  486  1  0.89110200  0.81222200  0.91954500  1
  C  487  1  0.89768200  0.79237500  0.92823100  1
  C  488  1  0.91872500  0.79163100  0.93663600  1
  C  489  1  0.93286000  0.80871900  0.93670600  1
  C  490  1  0.92630900  0.82722900  0.92669300  1
  C  497  1  0.95078900  0.80776300  0.94960500  1
  C  498  1  0.91338000  0.90859300  0.91543700  1
  C  499  1  0.87592200  0.87309000  0.86024700  1
  C  500  1  0.88501100  0.77370900  0.92937400  1
  C  505  1  0.65081800  0.61771200  0.36601500  1
  C  506  1  0.64036500  0.59808400  0.36423300  1
  C  507  1  0.63751500  0.58806100  0.34476500  1
  C  508  1  0.64567100  0.59747600  0.32658400  1
  C  509  1  0.65655300  0.61682000  0.32705200  1
  C  510  1  0.65865200  0.62685200  0.34695300  1
  C  513  1  0.65520500  0.62620800  0.38678900  1
  C  514  1  0.64009700  0.62696500  0.40381500  1
  C  515  1  0.64581200  0.63442700  0.42426100  1
  C  516  1  0.66718000  0.64169800  0.42689900  1
  C  517  1  0.68263100  0.64093200  0.41086800  1
  C  518  1  0.67651500  0.63290300  0.39121700  1
  C  525  1  0.70194200  0.65137400  0.41389300  1
  C  526  1  0.66548100  0.62471900  0.30832300  1
  C  527  1  0.62657600  0.56945200  0.34250400  1
  C  528  1  0.63186100  0.63461800  0.44190400  1
  C  533  1  0.15102200  0.30527600  0.13965600  1
  C  534  1  0.14058100  0.32491200  0.14135500  1
  C  535  1  0.13763100  0.33494700  0.16079800  1
  C  536  1  0.14570500  0.32552800  0.17901200  1
  C  537  1  0.15660000  0.30618200  0.17858200  1
  C  538  1  0.15877200  0.29612200  0.15871700  1
  C  541  1  0.15537600  0.29669900  0.11895800  1
  C  542  1  0.14011300  0.29582500  0.10210100  1
  C  543  1  0.14568000  0.28819800  0.08171700  1
  C  544  1  0.16704000  0.28095000  0.07891900  1
  C  545  1  0.18262200  0.28183700  0.09480400  1
  C  546  1  0.17664700  0.28991100  0.11447000  1
  C  553  1  0.20179000  0.27124600  0.09166800  1
  C  554  1  0.16547500  0.29825900  0.19730300  1
  C  555  1  0.12647500  0.35345800  0.16298000  1
  C  556  1  0.13153300  0.28787800  0.06429300  1
  C  561  1  0.97247000  0.07458600  0.90984200  1
  C  562  1  0.98291200  0.07321800  0.89019900  1
  C  563  1  0.98611900  0.05382100  0.88002300  1
  C  564  1  0.97863600  0.03522000  0.88928200  1
  C  565  1  0.96803200  0.03521500  0.90870800  1
  C  566  1  0.96542800  0.05507300  0.91854700  1
  C  569  1  0.96712300  0.09499200  0.91891300  1
  C  570  1  0.98132500  0.11276400  0.92018600  1
  C  571  1  0.97465800  0.13253900  0.92876800  1
  C  572  1  0.95341600  0.13338700  0.93670900  1
  C  573  1  0.93916900  0.11641900  0.93653800  1
  C  574  1  0.94589300  0.09788400  0.92676100  1
  C  581  1  0.92080600  0.11763100  0.94885100  1
  C  582  1  0.95813100  0.01673400  0.91629400  1
  C  583  1  0.99656000  0.05207200  0.86115700  1
  C  584  1  0.98714500  0.15127000  0.92932300  1
  C  589  1  0.47271100  0.85094900  0.59883100  1
  C  590  1  0.48324800  0.85247000  0.61844200  1
  C  591  1  0.48621600  0.87189800  0.62870900  1
  C  592  1  0.47864800  0.89045900  0.61943600  1
  C  593  1  0.46802300  0.89043000  0.60003300  1
  C  594  1  0.46549400  0.87050500  0.59024100  1
  C  597  1  0.46732400  0.83037000  0.58985700  1
  C  598  1  0.48132700  0.81238600  0.58855200  1
  C  599  1  0.47450300  0.79256100  0.58000100  1
  C  600  1  0.45322400  0.79183900  0.57219300  1
  C  601  1  0.43919700  0.80900700  0.57229200  1
  C  602  1  0.44610300  0.82755100  0.58196800  1
  C  609  1  0.42105400  0.80811600  0.55966900  1
  C  610  1  0.45799200  0.90895800  0.59258000  1
  C  611  1  0.49641000  0.87378500  0.64769400  1
  C  612  1  0.48709300  0.77386400  0.57834600  1
  C  617  1  0.72166400  0.61861300  0.14044800  1
  C  618  1  0.73209700  0.59901200  0.14252200  1
  C  619  1  0.73517600  0.58936200  0.16216800  1
  C  620  1  0.72704000  0.59904400  0.18022100  1
  C  621  1  0.71614200  0.61840200  0.17948500  1
  C  622  1  0.71395400  0.62806500  0.15936200  1
  C  625  1  0.71718200  0.62677100  0.11955600  1
  C  626  1  0.73232300  0.62735500  0.10257200  1
  C  627  1  0.72664600  0.63472300  0.08208500  1
  C  628  1  0.70526200  0.64191200  0.07926900  1
  C  629  1  0.68975700  0.64120400  0.09524600  1
  C  630  1  0.69585100  0.63334100  0.11500400  1
  C  637  1  0.67045600  0.65160200  0.09204400  1
  C  638  1  0.70605000  0.62600800  0.19783200  1
  C  639  1  0.74593700  0.57064000  0.16454000  1
  C  640  1  0.74073600  0.63490200  0.06460700  1
  C  645  1  0.22193900  0.30405100  0.36529800  1
  C  646  1  0.23238300  0.32364400  0.36312600  1
  C  647  1  0.23535400  0.33333333  0.34345100  1
  C  648  1  0.22713000  0.32360700  0.32542900  1
  C  649  1  0.21624500  0.30425400  0.32619600  1
  C  650  1  0.21413000  0.29462600  0.34636400  1
  C  653  1  0.21739800  0.29603300  0.38631000  1
  C  654  1  0.23232200  0.29564500  0.40353100  1
  C  655  1  0.22645200  0.28848100  0.42409700  1
  C  656  1  0.20509700  0.28115600  0.42667000  1
  C  657  1  0.18981500  0.28161900  0.41048400  1
  C  658  1  0.19608100  0.28934900  0.39072600  1
  C  665  1  0.17067400  0.27093300  0.41348500  1
  C  666  1  0.20612100  0.29668600  0.30781200  1
  C  667  1  0.24575800  0.35218700  0.34099900  1
  C  668  1  0.24022100  0.28848100  0.44190400  1
  C  673  1  0.47189200  0.84999500  0.41271200  1
  C  674  1  0.48239100  0.85171700  0.39310900  1
  C  675  1  0.48539900  0.87117900  0.38288900  1
  C  676  1  0.47726100  0.88940200  0.39218200  1
  C  677  1  0.46633600  0.88898400  0.41151100  1
  C  678  1  0.46421200  0.86914400  0.42170400  1
  C  681  1  0.46698600  0.82930200  0.42129800  1
  C  682  1  0.48145600  0.81168600  0.42230700  1
  C  683  1  0.47487100  0.79143600  0.42992400  1
  C  684  1  0.45327700  0.78990700  0.43674400  1
  C  685  1  0.43853000  0.80645900  0.43609800  1
  C  686  1  0.44548000  0.82576300  0.42799800  1
  C  693  1  0.41914500  0.80400300  0.44657900  1
  C  694  1  0.45742200  0.90768300  0.41937900  1
  C  695  1  0.49766000  0.87345500  0.36496800  1
  C  696  1  0.48751800  0.77273400  0.43022400  1
  C  701  1  0.97165900  0.07575000  0.09604400  1
  C  702  1  0.98209000  0.07424200  0.11570100  1
  C  703  1  0.98496800  0.05486200  0.12600700  1
  C  704  1  0.97691200  0.03655200  0.11680400  1
  C  705  1  0.96614600  0.03680900  0.09739300  1
  C  706  1  0.96403100  0.05658500  0.08709100  1
  C  709  1  0.96661000  0.09631900  0.08742000  1
  C  710  1  0.98125900  0.11370500  0.08591600  1
  C  711  1  0.97470300  0.13388400  0.07825400  1
  C  712  1  0.95283900  0.13582200  0.07234400  1
  C  713  1  0.93796600  0.11939500  0.07339900  1
  C  714  1  0.94498500  0.09996400  0.08114200  1
  C  721  1  0.91853300  0.12197400  0.06312800  1
  C  722  1  0.95721400  0.01808100  0.08962500  1
  C  723  1  0.99619500  0.05280100  0.14449900  1
  C  724  1  0.98778200  0.15218100  0.07731500  1
  C  729  1  0.22192300  0.30479100  0.64067000  1
  C  730  1  0.23285800  0.32417900  0.64232200  1
  C  731  1  0.23593400  0.33437800  0.66172400  1
  C  732  1  0.22742700  0.32535100  0.67997600  1
  C  733  1  0.21619700  0.30618700  0.67969100  1
  C  734  1  0.21399800  0.29598800  0.65987200  1
  C  737  1  0.21685700  0.29636600  0.61994700  1
  C  738  1  0.23135300  0.29494400  0.60239200  1
  C  739  1  0.22469700  0.28745400  0.58214500  1
  C  740  1  0.20289000  0.28140600  0.58030800  1
  C  741  1  0.18809200  0.28255200  0.59684100  1
  C  742  1  0.19519900  0.29029400  0.61625200  1
  C  749  1  0.16851400  0.27242600  0.59450400  1
  C  750  1  0.20715600  0.29850100  0.69849400  1
  C  751  1  0.24805900  0.35237600  0.66389600  1
  C  752  1  0.23787800  0.28582900  0.56391100  1
  C  757  1  0.72212800  0.62116500  0.86677900  1
  C  758  1  0.73275700  0.60160400  0.86510800  1
  C  759  1  0.73574500  0.59149500  0.84565100  1
  C  760  1  0.72750300  0.60083800  0.82743900  1
  C  761  1  0.71657100  0.62016400  0.82782800  1
  C  762  1  0.71444600  0.63026800  0.84766300  1
  C  765  1  0.71703000  0.62966200  0.88739400  1
  C  766  1  0.73160800  0.63105100  0.90484500  1
  C  767  1  0.72505000  0.63882700  0.92496400  1
  C  768  1  0.70336900  0.64534700  0.92667600  1
  C  769  1  0.68845600  0.64404400  0.91031100  1
  C  770  1  0.69541500  0.63600100  0.89100700  1
  C  777  1  0.66894600  0.65417900  0.91285000  1
  C  778  1  0.70750900  0.62805400  0.80916400  1
  C  779  1  0.74691900  0.57292500  0.84339600  1
  C  780  1  0.73794100  0.63945500  0.94339500  1
  C  785  1  0.90030900  0.85035200  0.09476600  1
  C  786  1  0.88981500  0.85218600  0.11434000  1
  C  787  1  0.88676800  0.87171000  0.12429800  1
  C  788  1  0.89486100  0.88993400  0.11482200  1
  C  789  1  0.90578800  0.88950200  0.09547900  1
  C  790  1  0.90800500  0.86949700  0.08561500  1
  C  793  1  0.90534800  0.82950100  0.08662700  1
  C  794  1  0.89089700  0.81186900  0.08563400  1
  C  795  1  0.89753500  0.79153400  0.07836300  1
  C  796  1  0.91933000  0.78967400  0.07227400  1
  C  797  1  0.93406500  0.80628900  0.07290000  1
  C  798  1  0.92695700  0.82578800  0.08040300  1
  C  805  1  0.95355800  0.80385100  0.06260000  1
  C  806  1  0.91588300  0.90800200  0.08808800  1
  C  807  1  0.87510100  0.87384400  0.14257500  1
  C  808  1  0.88439100  0.77322800  0.07701700  1
  C  813  1  0.40006200  0.07487200  0.41342100  1
  C  814  1  0.38974900  0.07298800  0.39374200  1
  C  815  1  0.38682400  0.05340600  0.38388200  1
  C  816  1  0.39480000  0.03526200  0.39360600  1
  C  817  1  0.40550400  0.03584200  0.41306400  1
  C  818  1  0.40760600  0.05585000  0.42284300  1
  C  821  1  0.40516500  0.09560500  0.42160000  1
  C  822  1  0.39061100  0.11310800  0.42265400  1
  C  823  1  0.39717700  0.13332700  0.43015400  1
  C  824  1  0.41890600  0.13510700  0.43651900  1
  C  825  1  0.43375400  0.11865400  0.43573000  1
  C  826  1  0.42676200  0.09925100  0.42797400  1
  C  833  1  0.45323700  0.12131400  0.44591200  1
  C  834  1  0.41566400  0.01752400  0.42066200  1
  C  835  1  0.37594900  0.05109600  0.36516700  1
  C  836  1  0.38426200  0.15176700  0.43062300  1
  C  841  1  0.15005900  0.30397400  0.86639800  1
  C  842  1  0.13934600  0.32345700  0.86449600  1
  C  843  1  0.13618700  0.33325600  0.84490400  1
  C  844  1  0.14460000  0.32387400  0.82677500  1
  C  845  1  0.15562900  0.30458500  0.82731800  1
  C  846  1  0.15779700  0.29475600  0.84736000  1
  C  849  1  0.15536500  0.29588000  0.88717200  1
  C  850  1  0.14091700  0.29448400  0.90473700  1
  C  851  1  0.14768200  0.28700300  0.92494100  1
  C  852  1  0.16957600  0.28119200  0.92678800  1
  C  853  1  0.18438000  0.28258800  0.91031100  1
  C  854  1  0.17713500  0.29014400  0.89086000  1
  C  861  1  0.20409600  0.27276300  0.91278900  1
  C  862  1  0.16587100  0.29716800  0.80893700  1
  C  863  1  0.12557600  0.35210400  0.84263700  1
  C  864  1  0.13479300  0.28613400  0.94336300  1
  C  869  1  0.64972300  0.62250700  0.64164500  1
  C  870  1  0.63901400  0.60304000  0.64371100  1
  C  871  1  0.63579900  0.59322200  0.66334800  1
  C  872  1  0.64412000  0.60273400  0.68143600  1
  C  873  1  0.65525500  0.62196600  0.68078800  1
  C  874  1  0.65748000  0.63172200  0.66069800  1
  C  877  1  0.65487400  0.63054400  0.62072100  1
  C  878  1  0.64059300  0.63137000  0.60293000  1
  C  879  1  0.64737800  0.63867800  0.58260300  1
  C  880  1  0.66900100  0.64540800  0.58110100  1
  C  881  1  0.68363900  0.64464900  0.59774900  1
  C  882  1  0.67647600  0.63689700  0.61714100  1
  C  889  1  0.70303000  0.65506700  0.59539000  1
  C  890  1  0.66554700  0.62936700  0.69915700  1
  C  891  1  0.62395700  0.57498800  0.66572200  1
  C  892  1  0.63484600  0.63894400  0.56382400  1
  C  897  1  0.96144400  0.60551100  0.02231700  1
  C  899  1  0.97232400  0.62547200  0.99242300  1
  C  900  1  0.96680700  0.60857100  0.97946600  1
  C  902  1  0.95659200  0.58832900  0.00915600  1
  C  905  1  0.93677600  0.56504500  0.03205100  1
  C  911  1  0.46156100  0.31752600  0.48284800  1
  C  913  1  0.47226300  0.29751900  0.51277200  1
  C  914  1  0.46673600  0.31443000  0.52571700  1
  C  916  1  0.45649500  0.33462800  0.49602700  1
  C  919  1  0.43677500  0.35792000  0.47302800  1
  C  925  1  0.21107200  0.19446600  0.89830900  1
  C  927  1  0.22007200  0.22506700  0.91807600  1
  C  928  1  0.21397700  0.23763000  0.90097900  1
  C  930  1  0.20588200  0.20732100  0.88094800  1
  C  933  1  0.18677800  0.18378700  0.85795100  1
  C  939  1  0.71109100  0.73235700  0.61070900  1
  C  941  1  0.72034700  0.70183400  0.59100400  1
  C  942  1  0.71437500  0.68916200  0.60807900  1
  C  944  1  0.70625800  0.71956000  0.62819700  1
  C  947  1  0.68688100  0.74297200  0.65112700  1
  C  953  1  0.41078600  0.60555900  0.48297600  1
  C  955  1  0.40005100  0.62571300  0.51271200  1
  C  956  1  0.40552300  0.60885900  0.52582400  1
  C  958  1  0.41554900  0.58842100  0.49629800  1
  C  961  1  0.43535200  0.56500400  0.47371900  1
  C  967  1  0.91063700  0.31749300  0.02209100  1
  C  969  1  0.89999400  0.29731500  0.99234400  1
  C  970  1  0.90542400  0.31419200  0.97924600  1
  C  972  1  0.91560700  0.33455000  0.00874600  1
  C  975  1  0.93535200  0.35796400  0.03140100  1
  C  981  1  0.16114900  0.19469600  0.61055700  1
  C  983  1  0.15214500  0.22514100  0.59041900  1
  C  984  1  0.15820800  0.23785800  0.60736300  1
  C  986  1  0.16614700  0.20770700  0.62781300  1
  C  989  1  0.18521700  0.18450100  0.65112200  1
  C  995  1  0.66113900  0.73201500  0.89838000  1
  C  997  1  0.65205100  0.70141200  0.91816900  1
  C  998  1  0.65777400  0.68880100  0.90101500  1
  C  1000  1  0.66584400  0.71925900  0.88088300  1
  C  1003  1  0.68530200  0.74254200  0.85789600  1
  C  1009  1  0.66099200  0.72869100  0.10938200  1
  C  1011  1  0.65264400  0.69851200  0.08877100  1
  C  1012  1  0.65900900  0.68557700  0.10548300  1
  C  1014  1  0.66653200  0.71549100  0.12638700  1
  C  1017  1  0.68579400  0.73871000  0.14969000  1
  C  1023  1  0.16088800  0.19427700  0.39610100  1
  C  1025  1  0.15229300  0.22454500  0.41649900  1
  C  1026  1  0.15853100  0.23742400  0.39970100  1
  C  1028  1  0.16628500  0.20742600  0.37900500  1
  C  1031  1  0.18548500  0.18423100  0.35573000  1
  C  1037  1  0.71127700  0.72840800  0.39604600  1
  C  1039  1  0.71966700  0.69817100  0.41676700  1
  C  1040  1  0.71327600  0.68525400  0.40009200  1
  C  1042  1  0.70602500  0.71515800  0.37904200  1
  C  1045  1  0.68697000  0.73814500  0.35553200  1
  C  1051  1  0.21174500  0.19444100  0.10934200  1
  C  1053  1  0.22017700  0.22457700  0.08858800  1
  C  1054  1  0.21393000  0.23759700  0.10524900  1
  C  1056  1  0.20650200  0.20765100  0.12635300  1
  C  1059  1  0.18691400  0.18474800  0.14962900  1
  C  1065  1  0.45937100  0.10697000  0.52445800  1
  C  1067  1  0.46875300  0.12712000  0.49410500  1
  C  1068  1  0.46346500  0.11001000  0.48128700  1
  C  1070  1  0.45505500  0.08957800  0.51137900  1
  C  1073  1  0.43629800  0.06579900  0.53436500  1
  C  1079  1  0.95907100  0.81950000  0.98467600  1
  C  1081  1  0.96907100  0.79933100  0.01483600  1
  C  1082  1  0.96384200  0.81635200  0.02778800  1
  C  1084  1  0.95488000  0.83684000  0.99787400  1
  C  1087  1  0.93643000  0.86087800  0.97492400  1
  C  1093  1  0.91298100  0.10685800  0.98455200  1
  C  1095  1  0.90332400  0.12727800  0.01459700  1
  C  1096  1  0.90872000  0.11033200  0.02767100  1
  C  1098  1  0.91722800  0.08962700  0.99792600  1
  C  1101  1  0.93584900  0.06559800  0.97530000  1
  C  1107  1  0.41297400  0.81955500  0.52431000  1
  C  1109  1  0.40320100  0.79930500  0.49421700  1
  C  1110  1  0.40841400  0.81632000  0.48114200  1
  C  1112  1  0.41681800  0.83698200  0.51108700  1
  C  1115  1  0.43561500  0.86090800  0.53361900  1
  C  1121  1  0.94861500  0.44320000  0.09777400  1
  C  1123  1  0.92003300  0.46405800  0.11275200  1
  C  1124  1  0.92552000  0.48151400  0.10046000  1
  C  1126  1  0.95416700  0.46072100  0.08499300  1
  C  1129  1  0.98436400  0.44660700  0.06468100  1
  C  1135  1  0.44867900  0.48004800  0.40741700  1
  C  1137  1  0.42011100  0.45926200  0.39230400  1
  C  1138  1  0.42556400  0.44177000  0.40454700  1
  C  1140  1  0.45424100  0.46244400  0.42008200  1
  C  1143  1  0.48446900  0.47641600  0.44043900  1
  C  1149  1  0.19866400  0.11842300  0.73599000  1
  C  1151  1  0.17009800  0.10331600  0.75684400  1
  C  1152  1  0.17557000  0.11556900  0.77427500  1
  C  1154  1  0.20434500  0.13096800  0.75358700  1
  C  1157  1  0.23453200  0.15135000  0.73952300  1
  C  1163  1  0.69866500  0.80864000  0.77271400  1
  C  1165  1  0.67001200  0.82352300  0.75185000  1
  C  1166  1  0.67551200  0.81121700  0.73445900  1
  C  1168  1  0.70428200  0.79590100  0.75524500  1
  C  1171  1  0.73443400  0.77555700  0.76944800  1
  C  1177  1  0.92446000  0.48053200  0.91162900  1
  C  1179  1  0.95212900  0.45876900  0.89613100  1
  C  1180  1  0.94636300  0.44142100  0.90850800  1
  C  1182  1  0.91832400  0.46291700  0.92404800  1
  C  1185  1  0.88729200  0.47693900  0.94317600  1
  C  1191  1  0.42459800  0.44275800  0.59351500  1
  C  1193  1  0.45223700  0.46458900  0.60894200  1
  C  1194  1  0.44643900  0.48191100  0.59653000  1
  C  1196  1  0.41841000  0.46032700  0.58106600  1
  C  1199  1  0.38741500  0.44613000  0.56197300  1
  C  1205  1  0.67340000  0.80452200  0.27132200  1
  C  1207  1  0.70219900  0.81963100  0.25077400  1
  C  1208  1  0.69689400  0.80741400  0.23326800  1
  C  1210  1  0.66790200  0.79200000  0.25365900  1
  C  1213  1  0.63774300  0.77145700  0.26752500  1
  C  1219  1  0.17357600  0.11808400  0.23469900  1
  C  1221  1  0.20236800  0.10328200  0.25546700  1
  C  1222  1  0.19696700  0.11560200  0.27288200  1
  C  1224  1  0.16807600  0.13087100  0.25217100  1
  C  1227  1  0.13799300  0.15132000  0.23796500  1
  C  1233  1  0.44873000  0.94470500  0.59839000  1
  C  1235  1  0.42005600  0.96493700  0.61365200  1
  C  1236  1  0.42537300  0.98235700  0.60129900  1
  C  1238  1  0.45428800  0.96230900  0.58581000  1
  C  1241  1  0.48494400  0.94861400  0.56598100  1
  C  1247  1  0.94869800  0.98116400  0.91050400  1
  C  1249  1  0.91990700  0.96092500  0.89555700  1
  C  1250  1  0.92525200  0.94359900  0.90803400  1
  C  1252  1  0.95427000  0.96370100  0.92325100  1
  C  1255  1  0.98475800  0.97775700  0.94312100  1
  C  1261  1  0.69760300  0.61992700  0.23405800  1
  C  1263  1  0.67000600  0.60437900  0.25558000  1
  C  1264  1  0.67583000  0.61693200  0.27269900  1
  C  1266  1  0.70409700  0.63213100  0.25157100  1
  C  1269  1  0.73542700  0.65063300  0.23735400  1
  C  1275  1  0.19768900  0.30289400  0.27150000  1
  C  1277  1  0.17006600  0.31851700  0.25005300  1
  C  1278  1  0.17584800  0.30600900  0.23289300  1
  C  1280  1  0.20410400  0.29068800  0.25395000  1
  C  1283  1  0.23550800  0.27219000  0.26796100  1
  C  1289  1  0.42451100  0.98149400  0.41446000  1
  C  1291  1  0.45242000  0.96038000  0.39904500  1
  C  1292  1  0.44673400  0.94316500  0.41158200  1
  C  1294  1  0.41833800  0.96398900  0.42689300  1
  C  1297  1  0.38717700  0.97809200  0.44570500  1
  C  1303  1  0.92432600  0.94420400  0.09445000  1
  C  1305  1  0.95216800  0.96537000  0.11002000  1
  C  1306  1  0.94651800  0.98262000  0.09751300  1
  C  1308  1  0.91812400  0.96181800  0.08215600  1
  C  1311  1  0.88680600  0.94801800  0.06340800  1
  C  1317  1  0.17467200  0.30331600  0.77274900  1
  C  1319  1  0.20239600  0.31881200  0.75128400  1
  C  1320  1  0.19664100  0.30630000  0.73410500  1
  C  1322  1  0.16830400  0.29106800  0.75521000  1
  C  1325  1  0.13711100  0.27232400  0.76943200  1
  C  1331  1  0.67419300  0.62339500  0.73537900  1
  C  1333  1  0.70224400  0.60793500  0.75643400  1
  C  1334  1  0.69666000  0.62039300  0.77369300  1
  C  1336  1  0.66804500  0.63563500  0.75299800  1
  C  1339  1  0.63683600  0.65456000  0.73915700  1
  C  1345  1  0.82856100  0.56506800  0.14181700  1
  C  1347  1  0.80004300  0.55188200  0.16336100  1
  C  1348  1  0.78580300  0.56651600  0.15446400  1
  C  1350  1  0.81376200  0.57952300  0.13292500  1
  C  1353  1  0.83601800  0.60175400  0.11227200  1
  C  1359  1  0.32855700  0.35778500  0.36324400  1
  C  1361  1  0.30003900  0.37105100  0.34175400  1
  C  1362  1  0.28578900  0.35636900  0.35055500  1
  C  1364  1  0.31372500  0.34330100  0.37207100  1
  C  1367  1  0.33598600  0.32113300  0.39272700  1
  C  1373  1  0.07936700  0.07399500  0.85826600  1
  C  1375  1  0.05120900  0.05276200  0.84410600  1
  C  1376  1  0.03666600  0.06144200  0.85850600  1
  C  1378  1  0.06426100  0.08265000  0.87255400  1
  C  1381  1  0.08616300  0.10352100  0.89488700  1
  C  1387  1  0.57940600  0.85281000  0.65081800  1
  C  1389  1  0.55114200  0.87386600  0.66509100  1
  C  1390  1  0.53659000  0.86494600  0.65080800  1
  C  1392  1  0.56433400  0.84405100  0.63658100  1
  C  1395  1  0.58625700  0.82325100  0.61418900  1
  C  1401  1  0.54348600  0.56485300  0.36335600  1
  C  1403  1  0.57218500  0.55157400  0.34213200  1
  C  1404  1  0.58630900  0.56628300  0.35101400  1
  C  1406  1  0.55816600  0.57948700  0.37207200  1
  C  1409  1  0.53601200  0.60165200  0.39265100  1
  C  1415  1  0.04349400  0.35811400  0.14174800  1
  C  1417  1  0.07222900  0.37137800  0.16297700  1
  C  1418  1  0.08633800  0.35665400  0.15410000  1
  C  1420  1  0.05818100  0.34348800  0.13301700  1
  C  1423  1  0.03600800  0.32127200  0.11252900  1
  C  1429  1  0.29278400  0.07414300  0.65127000  1
  C  1431  1  0.32113400  0.05303500  0.66537700  1
  C  1432  1  0.33550800  0.06178400  0.65081300  1
  C  1434  1  0.30772000  0.08275500  0.63677700  1
  C  1437  1  0.28581500  0.10349300  0.61432500  1
  C  1443  1  0.79275000  0.85276500  0.85781800  1
  C  1445  1  0.82111400  0.87375000  0.84357200  1
  C  1446  1  0.83555100  0.86492500  0.85803100  1
  C  1448  1  0.80771500  0.84420200  0.87233200  1
  C  1451  1  0.78585200  0.82347100  0.89475600  1
  C  1457  1  0.04298200  0.35804600  0.86609900  1
  C  1459  1  0.07121800  0.37112100  0.84405800  1
  C  1460  1  0.08556400  0.35630400  0.85250900  1
  C  1462  1  0.05791400  0.34338400  0.87447500  1
  C  1465  1  0.03608800  0.32085300  0.89495500  1
  C  1471  1  0.54366700  0.56428200  0.63853200  1
  C  1473  1  0.57203600  0.55385600  0.66192300  1
  C  1474  1  0.58594600  0.56851100  0.65250300  1
  C  1476  1  0.55825500  0.57857200  0.62915100  1
  C  1479  1  0.53637600  0.60156600  0.60966100  1
  C  1485  1  0.79364900  0.84888000  0.14932800  1
  C  1487  1  0.82213800  0.87097400  0.16167100  1
  C  1488  1  0.83618800  0.86194800  0.14698300  1
  C  1490  1  0.80828200  0.83985200  0.13488200  1
  C  1493  1  0.78598600  0.81936900  0.11257600  1
  C  1499  1  0.29406900  0.07455400  0.35646300  1
  C  1501  1  0.32307500  0.05282300  0.34461200  1
  C  1502  1  0.33683700  0.06220200  0.35935600  1
  C  1504  1  0.30840500  0.08388500  0.37098300  1
  C  1507  1  0.28566800  0.10403300  0.39311400  1
  C  1513  1  0.32964200  0.35894500  0.63866700  1
  C  1515  1  0.30150300  0.37103400  0.66142900  1
  C  1516  1  0.28726600  0.35635400  0.65262900  1
  C  1518  1  0.31480700  0.34438700  0.63009600  1
  C  1521  1  0.33627200  0.32140300  0.61017200  1
  C  1527  1  0.82906700  0.56443200  0.86681100  1
  C  1529  1  0.80033700  0.55289000  0.84444200  1
  C  1530  1  0.78651200  0.56786600  0.85339200  1
  C  1532  1  0.81457600  0.57915900  0.87563500  1
  C  1535  1  0.83660900  0.60186000  0.89522400  1
  C  1541  1  0.57826400  0.84815900  0.35542700  1
  C  1543  1  0.54941400  0.87072900  0.34469200  1
  C  1544  1  0.53582900  0.86111000  0.35948000  1
  C  1546  1  0.56405500  0.83857300  0.36989500  1
  C  1549  1  0.58653200  0.81891900  0.39249700  1
  C  1555  1  0.07906900  0.07407900  0.14916400  1
  C  1557  1  0.05020300  0.05310700  0.16262100  1
  C  1558  1  0.03620600  0.06194500  0.14774300  1
  C  1560  1  0.06457300  0.08264600  0.13425500  1
  C  1563  1  0.08703100  0.10334300  0.11217400  1
  C  1569  1  0.88868600  0.73466700  0.06819400  1
  C  1571  1  0.87647100  0.70274800  0.08494400  1
  C  1572  1  0.88951900  0.69035800  0.07176100  1
  C  1574  1  0.90079500  0.72194100  0.05421800  1
  C  1577  1  0.92471900  0.74539500  0.03535200  1
  C  1583  1  0.38773500  0.19016100  0.43850500  1
  C  1585  1  0.37549100  0.22177800  0.42139400  1
  C  1586  1  0.38850200  0.23419300  0.43454300  1
  C  1588  1  0.39991700  0.20294600  0.45233600  1
  C  1591  1  0.42536300  0.18059900  0.47049600  1
  C  1597  1  0.14138400  0.14932100  0.02565000  1
  C  1599  1  0.12718900  0.13267200  0.99463000  1
  C  1600  1  0.13933700  0.14613900  0.98169900  1
  C  1602  1  0.15224100  0.16377900  0.01243400  1
  C  1605  1  0.17496000  0.18418100  0.03617900  1
  C  1611  1  0.64224200  0.77742600  0.48197200  1
  C  1613  1  0.62758500  0.79434700  0.51275500  1
  C  1614  1  0.63976200  0.78125300  0.52608300  1
  C  1616  1  0.65324300  0.76342400  0.49558600  1
  C  1619  1  0.67607500  0.74264900  0.47239000  1
  C  1625  1  0.48366300  0.73403100  0.43769800  1
  C  1627  1  0.49640400  0.70232800  0.42101100  1
  C  1628  1  0.48319800  0.68977000  0.43392500  1
  C  1630  1  0.47130300  0.72110900  0.45134900  1
  C  1633  1  0.44695400  0.74400200  0.47032300  1
  C  1639  1  0.98474200  0.19023600  0.06778900  1
  C  1641  1  0.99687800  0.22220400  0.08414400  1
  C  1642  1  0.98382500  0.23433100  0.07071600  1
  C  1644  1  0.97259100  0.20268900  0.05358000  1
  C  1647  1  0.94791500  0.17941100  0.03550500  1
  C  1653  1  0.23018500  0.14877200  0.48189100  1
  C  1655  1  0.24431800  0.13189000  0.51298000  1
  C  1656  1  0.23194900  0.14501700  0.52605900  1
  C  1658  1  0.21914700  0.16294300  0.49525600  1
  C  1661  1  0.19697800  0.18399000  0.47143300  1
  C  1667  1  0.73086300  0.77644100  0.02528900  1
  C  1669  1  0.74501600  0.79384400  0.99462100  1
  C  1670  1  0.73308000  0.78050300  0.98141500  1
  C  1672  1  0.72003200  0.76228200  0.01182100  1
  C  1675  1  0.69648400  0.74191600  0.03470200  1
  C  1681  1  0.98412200  0.18914900  0.93902300  1
  C  1683  1  0.99732700  0.22100400  0.92304800  1
  C  1684  1  0.98462200  0.23327600  0.93658500  1
  C  1686  1  0.97226600  0.20177100  0.95329400  1
  C  1689  1  0.94763500  0.17850500  0.97157500  1
  C  1695  1  0.48298800  0.73571600  0.56793600  1
  C  1697  1  0.49668300  0.70368900  0.58342500  1
  C  1698  1  0.48368400  0.69133300  0.57019800  1
  C  1700  1  0.47098600  0.72300700  0.55378400  1
  C  1703  1  0.44868800  0.74755100  0.53384500  1
  C  1709  1  0.38842800  0.18920400  0.56734700  1
  C  1711  1  0.37470900  0.22126200  0.58241100  1
  C  1712  1  0.38772700  0.23337900  0.56896300  1
  C  1714  1  0.40038500  0.20166000  0.55293100  1
  C  1717  1  0.42348500  0.17716200  0.53397000  1
  C  1723  1  0.88911700  0.73523300  0.93856900  1
  C  1725  1  0.87594100  0.70350000  0.92225800  1
  C  1726  1  0.88871000  0.69091100  0.93554400  1
  C  1728  1  0.90095300  0.72230300  0.95265400  1
  C  1731  1  0.92480300  0.74571700  0.97168100  1
  C  1737  1  0.63823100  0.64596100  0.52517100  1
  C  1739  1  0.62299600  0.62929600  0.49452400  1
  C  1740  1  0.63549900  0.64181800  0.48099900  1
  C  1742  1  0.65020700  0.65914700  0.51140100  1
  C  1745  1  0.67369500  0.67990100  0.53439200  1
  C  1751  1  0.13740200  0.27715500  0.98138700  1
  C  1753  1  0.12244400  0.29352100  0.01220200  1
  C  1754  1  0.13478900  0.28055400  0.02540800  1
  C  1756  1  0.14916700  0.26347200  0.99480400  1
  C  1759  1  0.17260400  0.24315000  0.97125300  1
  C  1765  1  0.73487600  0.64690400  0.98172400  1
  C  1767  1  0.74971400  0.62980400  0.01227700  1
  C  1768  1  0.73732600  0.64247100  0.02569200  1
  C  1770  1  0.72302500  0.66021500  0.99538000  1
  C  1773  1  0.69889800  0.68053200  0.97257500  1
  C  1779  1  0.23405800  0.27758000  0.52532900  1
  C  1781  1  0.24881100  0.29436900  0.49447500  1
  C  1782  1  0.23643800  0.28161700  0.48108700  1
  C  1784  1  0.22226700  0.26411900  0.51174500  1
  C  1787  1  0.19929200  0.24321200  0.53524900  1
  C  1793  1  0.25791000  0.57557600  0.09723200  1
  C  1794  1  0.24460500  0.57481400  0.11523800  1
  C  1795  1  0.23814400  0.55587400  0.12489700  1
  C  1796  1  0.24684600  0.53683700  0.11768400  1
  C  1797  1  0.26067800  0.53608500  0.10020400  1
  C  1798  1  0.26531400  0.55556600  0.09009300  1
  C  1801  1  0.26383100  0.59582700  0.08768500  1
  C  1802  1  0.25015300  0.61390800  0.08622500  1
  C  1803  1  0.25643100  0.63367400  0.07763000  1
  C  1804  1  0.27734800  0.63470400  0.06910500  1
  C  1805  1  0.29147900  0.61749400  0.06966100  1
  C  1806  1  0.28488100  0.59877600  0.07953100  1
  C  1813  1  0.30940400  0.61815500  0.05692400  1
  C  1814  1  0.26905000  0.51677700  0.09292000  1
  C  1815  1  0.22161900  0.55539300  0.13951300  1
  C  1816  1  0.24282000  0.65158000  0.07698500  1
  C  1821  1  0.75819000  0.34787200  0.40766100  1
  C  1822  1  0.74483600  0.34854100  0.38968200  1
  C  1823  1  0.73815400  0.36744200  0.38011500  1
  C  1824  1  0.74678300  0.38650800  0.38734200  1
  C  1825  1  0.76069900  0.38729900  0.40476900  1
  C  1826  1  0.76548000  0.36786300  0.41486400  1
  C  1829  1  0.76413300  0.32772500  0.41727200  1
  C  1830  1  0.75023400  0.30987400  0.41894500  1
  C  1831  1  0.75631000  0.29018300  0.42770800  1
  C  1832  1  0.77730300  0.28887800  0.43601600  1
  C  1833  1  0.79165500  0.30589500  0.43525000  1
  C  1834  1  0.78518500  0.32466800  0.42540100  1
  C  1841  1  0.80941700  0.30509800  0.44815400  1
  C  1842  1  0.76901500  0.40659100  0.41207400  1
  C  1843  1  0.72151700  0.36779700  0.36560100  1
  C  1844  1  0.74234400  0.27264500  0.42868300  1
  C  1849  1  0.50850400  0.11868900  0.86817200  1
  C  1850  1  0.49533000  0.10059400  0.86764900  1
  C  1851  1  0.48877100  0.09090400  0.84881400  1
  C  1852  1  0.49720900  0.09818700  0.82967000  1
  C  1853  1  0.51093700  0.11573500  0.82875200  1
  C  1854  1  0.51570500  0.12587200  0.84812200  1
  C  1857  1  0.51435600  0.12843900  0.88823200  1
  C  1858  1  0.50038200  0.13012600  0.90601900  1
  C  1859  1  0.50638100  0.13901700  0.92563900  1
  C  1860  1  0.52734200  0.14742400  0.92691300  1
  C  1861  1  0.54177100  0.14665600  0.90995700  1
  C  1862  1  0.53537700  0.13665400  0.89127100  1
  C  1869  1  0.55971900  0.15939400  0.91081900  1
  C  1870  1  0.51910900  0.12307200  0.80940100  1
  C  1871  1  0.47223300  0.07634100  0.84853700  1
  C  1872  1  0.49243500  0.13985600  0.94319600  1
  C  1877  1  0.00830908  0.80805200  0.64041200  1
  C  1878  1  0.99521000  0.82619500  0.64103300  1
  C  1879  1  0.98882900  0.83593800  0.65991200  1
  C  1880  1  0.99731100  0.82861600  0.67901900  1
  C  1881  1  0.01095710  0.81101700  0.67988300  1
  C  1882  1  0.01558510  0.80087700  0.66046700  1
  C  1885  1  0.01412510  0.79839800  0.62024100  1
  C  1886  1  0.00031008  0.79695100  0.60227700  1
  C  1887  1  0.00641208  0.78824900  0.58256000  1
  C  1888  1  0.02731810  0.77969700  0.58142600  1
  C  1889  1  0.04155510  0.78015200  0.59855400  1
  C  1890  1  0.03509310  0.79005100  0.61726600  1
  C  1897  1  0.05930710  0.76717300  0.59783100  1
  C  1898  1  0.01918910  0.80369200  0.69924000  1
  C  1899  1  0.97236300  0.85056900  0.66029500  1
  C  1900  1  0.99262200  0.78756900  0.56480300  1
  C  1905  1  0.82522200  0.57487200  0.40883400  1
  C  1906  1  0.83838700  0.57394100  0.39076100  1
  C  1907  1  0.84491400  0.55489700  0.38142400  1
  C  1908  1  0.83644100  0.53588000  0.38908600  1
  C  1909  1  0.82264200  0.53519400  0.40662600  1
  C  1910  1  0.81796200  0.55488600  0.41629300  1
  C  1913  1  0.81918300  0.59526200  0.41800300  1
  C  1914  1  0.83280700  0.61339300  0.41927300  1
  C  1915  1  0.82653800  0.63321300  0.42766800  1
  C  1916  1  0.80556300  0.63433200  0.43603600  1
  C  1917  1  0.79141300  0.61713600  0.43556000  1
  C  1918  1  0.79808200  0.59832300  0.42597800  1
  C  1925  1  0.77341200  0.61791200  0.44819500  1
  C  1926  1  0.81289500  0.51610500  0.41333200  1
  C  1927  1  0.86115300  0.55441400  0.36651200  1
  C  1928  1  0.84023000  0.65106700  0.42825000  1
  C  1933  1  0.32502300  0.34847100  0.09641300  1
  C  1934  1  0.33821900  0.34931600  0.11447000  1
  C  1935  1  0.34491700  0.36832100  0.12375800  1
  C  1936  1  0.33648800  0.38736400  0.11610100  1
  C  1937  1  0.32262900  0.38809900  0.09860000  1
  C  1938  1  0.31785900  0.36844900  0.08891400  1
  C  1941  1  0.31893700  0.32816600  0.08719600  1
  C  1942  1  0.33270000  0.31018600  0.08573800  1
  C  1943  1  0.32652700  0.29042900  0.07722400  1
  C  1944  1  0.30548000  0.28913900  0.06905800  1
  C  1945  1  0.29119500  0.30620600  0.06973200  1
  C  1946  1  0.29781700  0.32505400  0.07927400  1
  C  1953  1  0.27334700  0.30535600  0.05694600  1
  C  1954  1  0.31293500  0.40718800  0.09187300  1
  C  1955  1  0.36118900  0.36867600  0.13866200  1
  C  1956  1  0.34038700  0.27278100  0.07642400  1
  C  1961  1  0.57489900  0.11978600  0.64115700  1
  C  1962  1  0.58791300  0.10161400  0.64207200  1
  C  1963  1  0.59437800  0.09216800  0.66111500  1
  C  1964  1  0.58610900  0.09986200  0.68016500  1
  C  1965  1  0.57246300  0.11749300  0.68086100  1
  C  1966  1  0.56776100  0.12720800  0.66116200  1
  C  1969  1  0.56889300  0.12907400  0.62077700  1
  C  1970  1  0.58252100  0.13028500  0.60264000  1
  C  1971  1  0.57626500  0.13875900  0.58281500  1
  C  1972  1  0.55536100  0.14731300  0.58172400  1
  C  1973  1  0.54122600  0.14696100  0.59893700  1
  C  1974  1  0.54785400  0.13724800  0.61773900  1
  C  1981  1  0.52329400  0.15974400  0.59810600  1
  C  1982  1  0.56282300  0.12421000  0.69996000  1
  C  1983  1  0.61058700  0.07727200  0.66158600  1
  C  1984  1  0.58987300  0.13921100  0.56489600  1
  C  1989  1  0.07463910  0.80731300  0.86742600  1
  C  1990  1  0.08766410  0.82548100  0.86661800  1
  C  1991  1  0.09435710  0.83486200  0.84762600  1
  C  1992  1  0.08617310  0.82715500  0.82853900  1
  C  1993  1  0.07246210  0.80956000  0.82778300  1
  C  1994  1  0.06763410  0.79983800  0.84742800  1
  C  1997  1  0.06861910  0.79792900  0.88769900  1
  C  1998  1  0.08246210  0.79652300  0.90561900  1
  C  1999  1  0.07641410  0.78787200  0.92537100  1
  C  2000  1  0.05545310  0.77948100  0.92671300  1
  C  2001  1  0.04111710  0.77999700  0.90967800  1
  C  2002  1  0.04759710  0.78973700  0.89083500  1
  C  2009  1  0.02330310  0.76710600  0.91065800  1
  C  2010  1  0.06291410  0.80279000  0.80868600  1
  C  2011  1  0.11058100  0.84977200  0.84732400  1
  C  2012  1  0.09036710  0.78709700  0.94293800  1
  C  2017  1  0.32431300  0.34721300  0.91188400  1
  C  2018  1  0.33749500  0.34825700  0.89379500  1
  C  2019  1  0.34396400  0.36733000  0.88452600  1
  C  2020  1  0.33483300  0.38606400  0.89202100  1
  C  2021  1  0.32094300  0.38646000  0.90957000  1
  C  2022  1  0.31676400  0.36686300  0.91978700  1
  C  2025  1  0.31854000  0.32678700  0.92077600  1
  C  2026  1  0.33287400  0.30931700  0.92266400  1
  C  2027  1  0.32689000  0.28919400  0.93039800  1
  C  2028  1  0.30528800  0.28687000  0.93678300  1
  C  2029  1  0.29021900  0.30322100  0.93496100  1
  C  2030  1  0.29698300  0.32282100  0.92697100  1
  C  2037  1  0.27068300  0.30069000  0.94500000  1
  C  2038  1  0.31209400  0.40569400  0.91653100  1
  C  2039  1  0.36040300  0.36811000  0.86971300  1
  C  2040  1  0.34122200  0.27193800  0.93129200  1
  C  2045  1  0.82481200  0.57623500  0.59313000  1
  C  2046  1  0.83807200  0.57498500  0.61116600  1
  C  2047  1  0.84442000  0.55582100  0.62038200  1
  C  2048  1  0.83513000  0.53717400  0.61288200  1
  C  2049  1  0.82116100  0.53691600  0.59540000  1
  C  2050  1  0.81708600  0.55659600  0.58525700  1
  C  2053  1  0.81897600  0.59682300  0.58443600  1
  C  2054  1  0.83304200  0.61458800  0.58288900  1
  C  2055  1  0.82686100  0.63477700  0.57535700  1
  C  2056  1  0.80532100  0.63682800  0.56871400  1
  C  2057  1  0.79050900  0.62021900  0.57015100  1
  C  2058  1  0.79744900  0.60063300  0.57803500  1
  C  2065  1  0.77111100  0.62257100  0.55988300  1
  C  2066  1  0.81215100  0.51770500  0.58849100  1
  C  2067  1  0.86072500  0.55486100  0.63532800  1
  C  2068  1  0.84089300  0.65235700  0.57475100  1
  C  2073  1  0.07503610  0.80389900  0.13957700  1
  C  2074  1  0.08827910  0.82194600  0.13998300  1
  C  2075  1  0.09475110  0.83178000  0.15879600  1
  C  2076  1  0.08618010  0.82466200  0.17795600  1
  C  2077  1  0.07251610  0.80706900  0.17896000  1
  C  2078  1  0.06786410  0.79676700  0.15966100  1
  C  2081  1  0.06862610  0.79433300  0.11960500  1
  C  2082  1  0.08203310  0.79236500  0.10138900  1
  C  2083  1  0.07506210  0.78385900  0.08184400  1
  C  2084  1  0.05375410  0.77628200  0.08135600  1
  C  2085  1  0.03998710  0.77701000  0.09876300  1
  C  2086  1  0.04728110  0.78670300  0.11722900  1
  C  2093  1  0.02187010  0.76446200  0.09838000  1
  C  2094  1  0.06421010  0.79985200  0.19830500  1
  C  2095  1  0.11115300  0.84650200  0.15906800  1
  C  2096  1  0.08796910  0.78313400  0.06344400  1
  C  2101  1  0.57532600  0.11926400  0.36690600  1
  C  2102  1  0.58862100  0.10124500  0.36633600  1
  C  2103  1  0.59493200  0.09136900  0.34745800  1
  C  2104  1  0.58618800  0.09845400  0.32835600  1
  C  2105  1  0.57249500  0.11601900  0.32741900  1
  C  2106  1  0.56799300  0.12629700  0.34679800  1
  C  2109  1  0.56891800  0.12872500  0.38705000  1
  C  2110  1  0.58211200  0.13057600  0.40548300  1
  C  2111  1  0.57502000  0.13895600  0.42511600  1
  C  2112  1  0.55372500  0.14655000  0.42547100  1
  C  2113  1  0.54019500  0.14605000  0.40785700  1
  C  2114  1  0.54761400  0.13646500  0.38937100  1
  C  2121  1  0.52239100  0.15899200  0.40797000  1
  C  2122  1  0.56405200  0.12318800  0.30805300  1
  C  2123  1  0.61131200  0.07660000  0.34700900  1
  C  2124  1  0.58779000  0.13993100  0.44369500  1
  C  2129  1  0.75812000  0.34785500  0.59210900  1
  C  2130  1  0.74512500  0.34914700  0.61028600  1
  C  2131  1  0.73868800  0.36835700  0.61922400  1
  C  2132  1  0.74767800  0.38702200  0.61127400  1
  C  2133  1  0.76148500  0.38726100  0.59364000  1
  C  2134  1  0.76560900  0.36744200  0.58384800  1
  C  2137  1  0.76394500  0.32724500  0.58367600  1
  C  2138  1  0.74972700  0.30963800  0.58212300  1
  C  2139  1  0.75577400  0.28944100  0.57467900  1
  C  2140  1  0.77740200  0.28712300  0.56839200  1
  C  2141  1  0.79240700  0.30354400  0.57004000  1
  C  2142  1  0.78553800  0.32322600  0.57767100  1
  C  2149  1  0.81197500  0.30100100  0.56007100  1
  C  2150  1  0.77151300  0.40625200  0.58706400  1
  C  2151  1  0.72262800  0.36920400  0.63442000  1
  C  2152  1  0.74150500  0.27210400  0.57400500  1
  C  2157  1  0.25788100  0.57556300  0.91305300  1
  C  2158  1  0.24476300  0.57417200  0.89495100  1
  C  2159  1  0.23830500  0.55493300  0.88604600  1
  C  2160  1  0.24740300  0.53629700  0.89395400  1
  C  2161  1  0.26130900  0.53609400  0.91151500  1
  C  2162  1  0.26544400  0.55595100  0.92126200  1
  C  2165  1  0.26383600  0.59627100  0.92135400  1
  C  2166  1  0.24987700  0.61413200  0.92270500  1
  C  2167  1  0.25613100  0.63438800  0.92994600  1
  C  2168  1  0.27773100  0.63644500  0.93637300  1
  C  2169  1  0.29248100  0.61978200  0.93502300  1
  C  2170  1  0.28542000  0.60011700  0.92750400  1
  C  2177  1  0.31190700  0.62213800  0.94521800  1
  C  2178  1  0.27139900  0.51708800  0.91802500  1
  C  2179  1  0.22218600  0.55400300  0.87088200  1
  C  2180  1  0.24212100  0.65200500  0.93051200  1
  C  2185  1  0.00703508  0.80289000  0.36603100  1
  C  2186  1  0.99387300  0.82096900  0.36511700  1
  C  2187  1  0.98746100  0.83045600  0.34603700  1
  C  2188  1  0.99594500  0.82291500  0.32701500  1
  C  2189  1  0.00964408  0.80532600  0.32632400  1
  C  2190  1  0.01422110  0.79552200  0.34600500  1
  C  2193  1  0.01358310  0.79380600  0.38637600  1
  C  2194  1  0.00057608  0.79235300  0.40498900  1
  C  2195  1  0.00777808  0.78417900  0.42470300  1
  C  2196  1  0.02895710  0.77627600  0.42491700  1
  C  2197  1  0.04240110  0.77655900  0.40724800  1
  C  2198  1  0.03490710  0.78609700  0.38873100  1
  C  2205  1  0.06045010  0.76388200  0.40752900  1
  C  2206  1  0.01955110  0.79879400  0.30728300  1
  C  2207  1  0.97132200  0.84543900  0.34544300  1
  C  2208  1  0.99523300  0.78378700  0.44346300  1
  C  2213  1  0.50744500  0.12016900  0.14005600  1
  C  2214  1  0.49435700  0.10204400  0.14065900  1
  C  2215  1  0.48786300  0.09235100  0.15959100  1
  C  2216  1  0.49623400  0.09977900  0.17873200  1
  C  2217  1  0.50985000  0.11743500  0.17966700  1
  C  2218  1  0.51449100  0.12744200  0.16012300  1
  C  2221  1  0.51404200  0.12944600  0.11991000  1
  C  2222  1  0.50075900  0.13149300  0.10159400  1
  C  2223  1  0.50789600  0.13977600  0.08194500  1
  C  2224  1  0.52937500  0.14687500  0.08137300  1
  C  2225  1  0.54303700  0.14608900  0.09885600  1
  C  2226  1  0.53550500  0.13673500  0.11745600  1
  C  2233  1  0.56111400  0.15865800  0.09847600  1
  C  2234  1  0.51954500  0.12400700  0.19878300  1
  C  2235  1  0.47175000  0.07730400  0.15987600  1
  C  2236  1  0.49507300  0.14067800  0.06346800  1
  C  2241  1  0.75558000  0.07535800  0.59987900  1
  C  2242  1  0.74502100  0.07424000  0.61950000  1
  C  2243  1  0.74202100  0.05500600  0.63014700  1
  C  2244  1  0.74962700  0.03631900  0.62130300  1
  C  2245  1  0.76018700  0.03611700  0.60188300  1
  C  2246  1  0.76274500  0.05575800  0.59157200  1
  C  2249  1  0.76086200  0.09561000  0.59036000  1
  C  2250  1  0.74663800  0.11333600  0.58863000  1
  C  2251  1  0.75335000  0.13299800  0.57973100  1
  C  2252  1  0.77469400  0.13380800  0.57205100  1
  C  2253  1  0.78890800  0.11681900  0.57253800  1
  C  2254  1  0.78211000  0.09837300  0.58250900  1
  C  2261  1  0.80721300  0.11782100  0.56014400  1
  C  2262  1  0.76864500  0.01727700  0.59389800  1
  C  2263  1  0.73101700  0.05329500  0.64870500  1
  C  2264  1  0.74085400  0.15170300  0.57860500  1
  C  2269  1  0.25539400  0.85050800  0.90903700  1
  C  2270  1  0.24483900  0.85186600  0.88941900  1
  C  2271  1  0.24185000  0.87120600  0.87896500  1
  C  2272  1  0.24947800  0.88980000  0.88797600  1
  C  2273  1  0.26007700  0.88980800  0.90737300  1
  C  2274  1  0.26261000  0.87005300  0.91749700  1
  C  2277  1  0.26051500  0.83006500  0.91836400  1
  C  2278  1  0.24634400  0.81222200  0.91954500  1
  C  2279  1  0.25292400  0.79237500  0.92823100  1
  C  2280  1  0.27396700  0.79163100  0.93663600  1
  C  2281  1  0.28810200  0.80871900  0.93670600  1
  C  2282  1  0.28155100  0.82722900  0.92669300  1
  C  2289  1  0.30603100  0.80776300  0.94960500  1
  C  2290  1  0.26862200  0.90859300  0.91543700  1
  C  2291  1  0.23116400  0.87309000  0.86024700  1
  C  2292  1  0.24025300  0.77370900  0.92937400  1
  C  2297  1  0.00606008  0.61771200  0.36601500  1
  C  2298  1  0.99560700  0.59808400  0.36423300  1
  C  2299  1  0.99275700  0.58806100  0.34476500  1
  C  2300  1  0.00091308  0.59747600  0.32658400  1
  C  2301  1  0.01179510  0.61682000  0.32705200  1
  C  2302  1  0.01389410  0.62685200  0.34695300  1
  C  2305  1  0.01044710  0.62620800  0.38678900  1
  C  2306  1  0.99533900  0.62696500  0.40381500  1
  C  2307  1  0.00105408  0.63442700  0.42426100  1
  C  2308  1  0.02242210  0.64169800  0.42689900  1
  C  2309  1  0.03787310  0.64093200  0.41086800  1
  C  2310  1  0.03175710  0.63290300  0.39121700  1
  C  2317  1  0.05718410  0.65137400  0.41389300  1
  C  2318  1  0.02072310  0.62471900  0.30832300  1
  C  2319  1  0.98181800  0.56945200  0.34250400  1
  C  2320  1  0.98710300  0.63461800  0.44190400  1
  C  2325  1  0.50626400  0.30527600  0.13965600  1
  C  2326  1  0.49582300  0.32491200  0.14135500  1
  C  2327  1  0.49287300  0.33494700  0.16079800  1
  C  2328  1  0.50094700  0.32552800  0.17901200  1
  C  2329  1  0.51184200  0.30618200  0.17858200  1
  C  2330  1  0.51401400  0.29612200  0.15871700  1
  C  2333  1  0.51061800  0.29669900  0.11895800  1
  C  2334  1  0.49535500  0.29582500  0.10210100  1
  C  2335  1  0.50092200  0.28819800  0.08171700  1
  C  2336  1  0.52228200  0.28095000  0.07891900  1
  C  2337  1  0.53786400  0.28183700  0.09480400  1
  C  2338  1  0.53188900  0.28991100  0.11447000  1
  C  2345  1  0.55703200  0.27124600  0.09166800  1
  C  2346  1  0.52071700  0.29825900  0.19730300  1
  C  2347  1  0.48171700  0.35345800  0.16298000  1
  C  2348  1  0.48677500  0.28787800  0.06429300  1
  C  2353  1  0.32771200  0.07458600  0.90984200  1
  C  2354  1  0.33815400  0.07321800  0.89019900  1
  C  2355  1  0.34136100  0.05382100  0.88002300  1
  C  2356  1  0.33387800  0.03522000  0.88928200  1
  C  2357  1  0.32327400  0.03521500  0.90870800  1
  C  2358  1  0.32067000  0.05507300  0.91854700  1
  C  2361  1  0.32236500  0.09499200  0.91891300  1
  C  2362  1  0.33656700  0.11276400  0.92018600  1
  C  2363  1  0.32990000  0.13253900  0.92876800  1
  C  2364  1  0.30865800  0.13338700  0.93670900  1
  C  2365  1  0.29441100  0.11641900  0.93653800  1
  C  2366  1  0.30113500  0.09788400  0.92676100  1
  C  2373  1  0.27604800  0.11763100  0.94885100  1
  C  2374  1  0.31337300  0.01673400  0.91629400  1
  C  2375  1  0.35180200  0.05207200  0.86115700  1
  C  2376  1  0.34238700  0.15127000  0.92932300  1
  C  2381  1  0.82795300  0.85094900  0.59883100  1
  C  2382  1  0.83849000  0.85247000  0.61844200  1
  C  2383  1  0.84145800  0.87189800  0.62870900  1
  C  2384  1  0.83389000  0.89045900  0.61943600  1
  C  2385  1  0.82326500  0.89043000  0.60003300  1
  C  2386  1  0.82073600  0.87050500  0.59024100  1
  C  2389  1  0.82256600  0.83037000  0.58985700  1
  C  2390  1  0.83656900  0.81238600  0.58855200  1
  C  2391  1  0.82974500  0.79256100  0.58000100  1
  C  2392  1  0.80846600  0.79183900  0.57219300  1
  C  2393  1  0.79443900  0.80900700  0.57229200  1
  C  2394  1  0.80134500  0.82755100  0.58196800  1
  C  2401  1  0.77629600  0.80811600  0.55966900  1
  C  2402  1  0.81323400  0.90895800  0.59258000  1
  C  2403  1  0.85165200  0.87378500  0.64769400  1
  C  2404  1  0.84233500  0.77386400  0.57834600  1
  C  2409  1  0.07690610  0.61861300  0.14044800  1
  C  2410  1  0.08733910  0.59901200  0.14252200  1
  C  2411  1  0.09041810  0.58936200  0.16216800  1
  C  2412  1  0.08228210  0.59904400  0.18022100  1
  C  2413  1  0.07138410  0.61840200  0.17948500  1
  C  2414  1  0.06919610  0.62806500  0.15936200  1
  C  2417  1  0.07242410  0.62677100  0.11955600  1
  C  2418  1  0.08756510  0.62735500  0.10257200  1
  C  2419  1  0.08188810  0.63472300  0.08208500  1
  C  2420  1  0.06050410  0.64191200  0.07926900  1
  C  2421  1  0.04499910  0.64120400  0.09524600  1
  C  2422  1  0.05109310  0.63334100  0.11500400  1
  C  2429  1  0.02569810  0.65160200  0.09204400  1
  C  2430  1  0.06129210  0.62600800  0.19783200  1
  C  2431  1  0.10117900  0.57064000  0.16454000  1
  C  2432  1  0.09597810  0.63490200  0.06460700  1
  C  2437  1  0.57718100  0.30405100  0.36529800  1
  C  2438  1  0.58762500  0.32364400  0.36312600  1
  C  2439  1  0.59059600  0.33333333  0.34345100  1
  C  2440  1  0.58237200  0.32360700  0.32542900  1
  C  2441  1  0.57148700  0.30425400  0.32619600  1
  C  2442  1  0.56937200  0.29462600  0.34636400  1
  C  2445  1  0.57264000  0.29603300  0.38631000  1
  C  2446  1  0.58756400  0.29564500  0.40353100  1
  C  2447  1  0.58169400  0.28848100  0.42409700  1
  C  2448  1  0.56033900  0.28115600  0.42667000  1
  C  2449  1  0.54505700  0.28161900  0.41048400  1
  C  2450  1  0.55132300  0.28934900  0.39072600  1
  C  2457  1  0.52591600  0.27093300  0.41348500  1
  C  2458  1  0.56136300  0.29668600  0.30781200  1
  C  2459  1  0.60100000  0.35218700  0.34099900  1
  C  2460  1  0.59546300  0.28848100  0.44190400  1
  C  2465  1  0.82713400  0.84999500  0.41271200  1
  C  2466  1  0.83763300  0.85171700  0.39310900  1
  C  2467  1  0.84064100  0.87117900  0.38288900  1
  C  2468  1  0.83250300  0.88940200  0.39218200  1
  C  2469  1  0.82157800  0.88898400  0.41151100  1
  C  2470  1  0.81945400  0.86914400  0.42170400  1
  C  2473  1  0.82222800  0.82930200  0.42129800  1
  C  2474  1  0.83669800  0.81168600  0.42230700  1
  C  2475  1  0.83011300  0.79143600  0.42992400  1
  C  2476  1  0.80851900  0.78990700  0.43674400  1
  C  2477  1  0.79377200  0.80645900  0.43609800  1
  C  2478  1  0.80072200  0.82576300  0.42799800  1
  C  2485  1  0.77438700  0.80400300  0.44657900  1
  C  2486  1  0.81266400  0.90768300  0.41937900  1
  C  2487  1  0.85290200  0.87345500  0.36496800  1
  C  2488  1  0.84276000  0.77273400  0.43022400  1
  C  2493  1  0.32690100  0.07575000  0.09604400  1
  C  2494  1  0.33733200  0.07424200  0.11570100  1
  C  2495  1  0.34021000  0.05486200  0.12600700  1
  C  2496  1  0.33215400  0.03655200  0.11680400  1
  C  2497  1  0.32138800  0.03680900  0.09739300  1
  C  2498  1  0.31927300  0.05658500  0.08709100  1
  C  2501  1  0.32185200  0.09631900  0.08742000  1
  C  2502  1  0.33650100  0.11370500  0.08591600  1
  C  2503  1  0.32994500  0.13388400  0.07825400  1
  C  2504  1  0.30808100  0.13582200  0.07234400  1
  C  2505  1  0.29320800  0.11939500  0.07339900  1
  C  2506  1  0.30022700  0.09996400  0.08114200  1
  C  2513  1  0.27377500  0.12197400  0.06312800  1
  C  2514  1  0.31245600  0.01808100  0.08962500  1
  C  2515  1  0.35143700  0.05280100  0.14449900  1
  C  2516  1  0.34302400  0.15218100  0.07731500  1
  C  2521  1  0.57716500  0.30479100  0.64067000  1
  C  2522  1  0.58810000  0.32417900  0.64232200  1
  C  2523  1  0.59117600  0.33437800  0.66172400  1
  C  2524  1  0.58266900  0.32535100  0.67997600  1
  C  2525  1  0.57143900  0.30618700  0.67969100  1
  C  2526  1  0.56924000  0.29598800  0.65987200  1
  C  2529  1  0.57209900  0.29636600  0.61994700  1
  C  2530  1  0.58659500  0.29494400  0.60239200  1
  C  2531  1  0.57993900  0.28745400  0.58214500  1
  C  2532  1  0.55813200  0.28140600  0.58030800  1
  C  2533  1  0.54333400  0.28255200  0.59684100  1
  C  2534  1  0.55044100  0.29029400  0.61625200  1
  C  2541  1  0.52375600  0.27242600  0.59450400  1
  C  2542  1  0.56239800  0.29850100  0.69849400  1
  C  2543  1  0.60330100  0.35237600  0.66389600  1
  C  2544  1  0.59312000  0.28582900  0.56391100  1
  C  2549  1  0.07737010  0.62116500  0.86677900  1
  C  2550  1  0.08799910  0.60160400  0.86510800  1
  C  2551  1  0.09098710  0.59149500  0.84565100  1
  C  2552  1  0.08274510  0.60083800  0.82743900  1
  C  2553  1  0.07181310  0.62016400  0.82782800  1
  C  2554  1  0.06968810  0.63026800  0.84766300  1
  C  2557  1  0.07227210  0.62966200  0.88739400  1
  C  2558  1  0.08685010  0.63105100  0.90484500  1
  C  2559  1  0.08029210  0.63882700  0.92496400  1
  C  2560  1  0.05861110  0.64534700  0.92667600  1
  C  2561  1  0.04369810  0.64404400  0.91031100  1
  C  2562  1  0.05065710  0.63600100  0.89100700  1
  C  2569  1  0.02418810  0.65417900  0.91285000  1
  C  2570  1  0.06275110  0.62805400  0.80916400  1
  C  2571  1  0.10216100  0.57292500  0.84339600  1
  C  2572  1  0.09318310  0.63945500  0.94339500  1
  C  2577  1  0.25555100  0.85035200  0.09476600  1
  C  2578  1  0.24505700  0.85218600  0.11434000  1
  C  2579  1  0.24201000  0.87171000  0.12429800  1
  C  2580  1  0.25010300  0.88993400  0.11482200  1
  C  2581  1  0.26103000  0.88950200  0.09547900  1
  C  2582  1  0.26324700  0.86949700  0.08561500  1
  C  2585  1  0.26059000  0.82950100  0.08662700  1
  C  2586  1  0.24613900  0.81186900  0.08563400  1
  C  2587  1  0.25277700  0.79153400  0.07836300  1
  C  2588  1  0.27457200  0.78967400  0.07227400  1
  C  2589  1  0.28930700  0.80628900  0.07290000  1
  C  2590  1  0.28219900  0.82578800  0.08040300  1
  C  2597  1  0.30880000  0.80385100  0.06260000  1
  C  2598  1  0.27112500  0.90800200  0.08808800  1
  C  2599  1  0.23034300  0.87384400  0.14257500  1
  C  2600  1  0.23963300  0.77322800  0.07701700  1
  C  2605  1  0.75530400  0.07487200  0.41342100  1
  C  2606  1  0.74499100  0.07298800  0.39374200  1
  C  2607  1  0.74206600  0.05340600  0.38388200  1
  C  2608  1  0.75004200  0.03526200  0.39360600  1
  C  2609  1  0.76074600  0.03584200  0.41306400  1
  C  2610  1  0.76284800  0.05585000  0.42284300  1
  C  2613  1  0.76040700  0.09560500  0.42160000  1
  C  2614  1  0.74585300  0.11310800  0.42265400  1
  C  2615  1  0.75241900  0.13332700  0.43015400  1
  C  2616  1  0.77414800  0.13510700  0.43651900  1
  C  2617  1  0.78899600  0.11865400  0.43573000  1
  C  2618  1  0.78200400  0.09925100  0.42797400  1
  C  2625  1  0.80847900  0.12131400  0.44591200  1
  C  2626  1  0.77090600  0.01752400  0.42066200  1
  C  2627  1  0.73119100  0.05109600  0.36516700  1
  C  2628  1  0.73950400  0.15176700  0.43062300  1
  C  2633  1  0.50530100  0.30397400  0.86639800  1
  C  2634  1  0.49458800  0.32345700  0.86449600  1
  C  2635  1  0.49142900  0.33325600  0.84490400  1
  C  2636  1  0.49984200  0.32387400  0.82677500  1
  C  2637  1  0.51087100  0.30458500  0.82731800  1
  C  2638  1  0.51303900  0.29475600  0.84736000  1
  C  2641  1  0.51060700  0.29588000  0.88717200  1
  C  2642  1  0.49615900  0.29448400  0.90473700  1
  C  2643  1  0.50292400  0.28700300  0.92494100  1
  C  2644  1  0.52481800  0.28119200  0.92678800  1
  C  2645  1  0.53962200  0.28258800  0.91031100  1
  C  2646  1  0.53237700  0.29014400  0.89086000  1
  C  2653  1  0.55933800  0.27276300  0.91278900  1
  C  2654  1  0.52111300  0.29716800  0.80893700  1
  C  2655  1  0.48081800  0.35210400  0.84263700  1
  C  2656  1  0.49003500  0.28613400  0.94336300  1
  C  2661  1  0.00496508  0.62250700  0.64164500  1
  C  2662  1  0.99425600  0.60304000  0.64371100  1
  C  2663  1  0.99104100  0.59322200  0.66334800  1
  C  2664  1  0.99936200  0.60273400  0.68143600  1
  C  2665  1  0.01049710  0.62196600  0.68078800  1
  C  2666  1  0.01272210  0.63172200  0.66069800  1
  C  2669  1  0.01011610  0.63054400  0.62072100  1
  C  2670  1  0.99583500  0.63137000  0.60293000  1
  C  2671  1  0.00262008  0.63867800  0.58260300  1
  C  2672  1  0.02424310  0.64540800  0.58110100  1
  C  2673  1  0.03888110  0.64464900  0.59774900  1
  C  2674  1  0.03171810  0.63689700  0.61714100  1
  C  2681  1  0.05827210  0.65506700  0.59539000  1
  C  2682  1  0.02078910  0.62936700  0.69915700  1
  C  2683  1  0.97919900  0.57498800  0.66572200  1
  C  2684  1  0.99008800  0.63894400  0.56382400  1
  C  2689  1  0.31668600  0.60551100  0.02231700  1
  C  2691  1  0.32756600  0.62547200  0.99242300  1
  C  2692  1  0.32204900  0.60857100  0.97946600  1
  C  2694  1  0.31183400  0.58832900  0.00915600  1
  C  2697  1  0.29201800  0.56504500  0.03205100  1
  C  2703  1  0.81680300  0.31752600  0.48284800  1
  C  2705  1  0.82750500  0.29751900  0.51277200  1
  C  2706  1  0.82197800  0.31443000  0.52571700  1
  C  2708  1  0.81173700  0.33462800  0.49602700  1
  C  2711  1  0.79201700  0.35792000  0.47302800  1
  C  2717  1  0.56631400  0.19446600  0.89830900  1
  C  2719  1  0.57531400  0.22506700  0.91807600  1
  C  2720  1  0.56921900  0.23763000  0.90097900  1
  C  2722  1  0.56112400  0.20732100  0.88094800  1
  C  2725  1  0.54202000  0.18378700  0.85795100  1
  C  2731  1  0.06633310  0.73235700  0.61070900  1
  C  2733  1  0.07558910  0.70183400  0.59100400  1
  C  2734  1  0.06961710  0.68916200  0.60807900  1
  C  2736  1  0.06150010  0.71956000  0.62819700  1
  C  2739  1  0.04212310  0.74297200  0.65112700  1
  C  2745  1  0.76602800  0.60555900  0.48297600  1
  C  2747  1  0.75529300  0.62571300  0.51271200  1
  C  2748  1  0.76076500  0.60885900  0.52582400  1
  C  2750  1  0.77079100  0.58842100  0.49629800  1
  C  2753  1  0.79059400  0.56500400  0.47371900  1
  C  2759  1  0.26587900  0.31749300  0.02209100  1
  C  2761  1  0.25523600  0.29731500  0.99234400  1
  C  2762  1  0.26066600  0.31419200  0.97924600  1
  C  2764  1  0.27084900  0.33455000  0.00874600  1
  C  2767  1  0.29059400  0.35796400  0.03140100  1
  C  2773  1  0.51639100  0.19469600  0.61055700  1
  C  2775  1  0.50738700  0.22514100  0.59041900  1
  C  2776  1  0.51345000  0.23785800  0.60736300  1
  C  2778  1  0.52138900  0.20770700  0.62781300  1
  C  2781  1  0.54045900  0.18450100  0.65112200  1
  C  2787  1  0.01638110  0.73201500  0.89838000  1
  C  2789  1  0.00729308  0.70141200  0.91816900  1
  C  2790  1  0.01301610  0.68880100  0.90101500  1
  C  2792  1  0.02108610  0.71925900  0.88088300  1
  C  2795  1  0.04054410  0.74254200  0.85789600  1
  C  2801  1  0.01623410  0.72869100  0.10938200  1
  C  2803  1  0.00788608  0.69851200  0.08877100  1
  C  2804  1  0.01425110  0.68557700  0.10548300  1
  C  2806  1  0.02177410  0.71549100  0.12638700  1
  C  2809  1  0.04103610  0.73871000  0.14969000  1
  C  2815  1  0.51613000  0.19427700  0.39610100  1
  C  2817  1  0.50753500  0.22454500  0.41649900  1
  C  2818  1  0.51377300  0.23742400  0.39970100  1
  C  2820  1  0.52152700  0.20742600  0.37900500  1
  C  2823  1  0.54072700  0.18423100  0.35573000  1
  C  2829  1  0.06651910  0.72840800  0.39604600  1
  C  2831  1  0.07490910  0.69817100  0.41676700  1
  C  2832  1  0.06851810  0.68525400  0.40009200  1
  C  2834  1  0.06126710  0.71515800  0.37904200  1
  C  2837  1  0.04221210  0.73814500  0.35553200  1
  C  2843  1  0.56698700  0.19444100  0.10934200  1
  C  2845  1  0.57541900  0.22457700  0.08858800  1
  C  2846  1  0.56917200  0.23759700  0.10524900  1
  C  2848  1  0.56174400  0.20765100  0.12635300  1
  C  2851  1  0.54215600  0.18474800  0.14962900  1
  C  2857  1  0.81461300  0.10697000  0.52445800  1
  C  2859  1  0.82399500  0.12712000  0.49410500  1
  C  2860  1  0.81870700  0.11001000  0.48128700  1
  C  2862  1  0.81029700  0.08957800  0.51137900  1
  C  2865  1  0.79154000  0.06579900  0.53436500  1
  C  2871  1  0.31431300  0.81950000  0.98467600  1
  C  2873  1  0.32431300  0.79933100  0.01483600  1
  C  2874  1  0.31908400  0.81635200  0.02778800  1
  C  2876  1  0.31012200  0.83684000  0.99787400  1
  C  2879  1  0.29167200  0.86087800  0.97492400  1
  C  2885  1  0.26822300  0.10685800  0.98455200  1
  C  2887  1  0.25856600  0.12727800  0.01459700  1
  C  2888  1  0.26396200  0.11033200  0.02767100  1
  C  2890  1  0.27247000  0.08962700  0.99792600  1
  C  2893  1  0.29109100  0.06559800  0.97530000  1
  C  2899  1  0.76821600  0.81955500  0.52431000  1
  C  2901  1  0.75844300  0.79930500  0.49421700  1
  C  2902  1  0.76365600  0.81632000  0.48114200  1
  C  2904  1  0.77206000  0.83698200  0.51108700  1
  C  2907  1  0.79085700  0.86090800  0.53361900  1
  C  2913  1  0.30385700  0.44320000  0.09777400  1
  C  2915  1  0.27527500  0.46405800  0.11275200  1
  C  2916  1  0.28076200  0.48151400  0.10046000  1
  C  2918  1  0.30940900  0.46072100  0.08499300  1
  C  2921  1  0.33960600  0.44660700  0.06468100  1
  C  2927  1  0.80392100  0.48004800  0.40741700  1
  C  2929  1  0.77535300  0.45926200  0.39230400  1
  C  2930  1  0.78080600  0.44177000  0.40454700  1
  C  2932  1  0.80948300  0.46244400  0.42008200  1
  C  2935  1  0.83971100  0.47641600  0.44043900  1
  C  2941  1  0.55390600  0.11842300  0.73599000  1
  C  2943  1  0.52534000  0.10331600  0.75684400  1
  C  2944  1  0.53081200  0.11556900  0.77427500  1
  C  2946  1  0.55958700  0.13096800  0.75358700  1
  C  2949  1  0.58977400  0.15135000  0.73952300  1
  C  2955  1  0.05390710  0.80864000  0.77271400  1
  C  2957  1  0.02525410  0.82352300  0.75185000  1
  C  2958  1  0.03075410  0.81121700  0.73445900  1
  C  2960  1  0.05952410  0.79590100  0.75524500  1
  C  2963  1  0.08967610  0.77555700  0.76944800  1
  C  2969  1  0.27970200  0.48053200  0.91162900  1
  C  2971  1  0.30737100  0.45876900  0.89613100  1
  C  2972  1  0.30160500  0.44142100  0.90850800  1
  C  2974  1  0.27356600  0.46291700  0.92404800  1
  C  2977  1  0.24253400  0.47693900  0.94317600  1
  C  2983  1  0.77984000  0.44275800  0.59351500  1
  C  2985  1  0.80747900  0.46458900  0.60894200  1
  C  2986  1  0.80168100  0.48191100  0.59653000  1
  C  2988  1  0.77365200  0.46032700  0.58106600  1
  C  2991  1  0.74265700  0.44613000  0.56197300  1
  C  2997  1  0.02864210  0.80452200  0.27132200  1
  C  2999  1  0.05744110  0.81963100  0.25077400  1
  C  3000  1  0.05213610  0.80741400  0.23326800  1
  C  3002  1  0.02314410  0.79200000  0.25365900  1
  C  3005  1  0.99298500  0.77145700  0.26752500  1
  C  3011  1  0.52881800  0.11808400  0.23469900  1
  C  3013  1  0.55761000  0.10328200  0.25546700  1
  C  3014  1  0.55220900  0.11560200  0.27288200  1
  C  3016  1  0.52331800  0.13087100  0.25217100  1
  C  3019  1  0.49323500  0.15132000  0.23796500  1
  C  3025  1  0.80397200  0.94470500  0.59839000  1
  C  3027  1  0.77529800  0.96493700  0.61365200  1
  C  3028  1  0.78061500  0.98235700  0.60129900  1
  C  3030  1  0.80953000  0.96230900  0.58581000  1
  C  3033  1  0.84018600  0.94861400  0.56598100  1
  C  3039  1  0.30394000  0.98116400  0.91050400  1
  C  3041  1  0.27514900  0.96092500  0.89555700  1
  C  3042  1  0.28049400  0.94359900  0.90803400  1
  C  3044  1  0.30951200  0.96370100  0.92325100  1
  C  3047  1  0.34000000  0.97775700  0.94312100  1
  C  3053  1  0.05284510  0.61992700  0.23405800  1
  C  3055  1  0.02524810  0.60437900  0.25558000  1
  C  3056  1  0.03107210  0.61693200  0.27269900  1
  C  3058  1  0.05933910  0.63213100  0.25157100  1
  C  3061  1  0.09066910  0.65063300  0.23735400  1
  C  3067  1  0.55293100  0.30289400  0.27150000  1
  C  3069  1  0.52530800  0.31851700  0.25005300  1
  C  3070  1  0.53109000  0.30600900  0.23289300  1
  C  3072  1  0.55934600  0.29068800  0.25395000  1
  C  3075  1  0.59075000  0.27219000  0.26796100  1
  C  3081  1  0.77975300  0.98149400  0.41446000  1
  C  3083  1  0.80766200  0.96038000  0.39904500  1
  C  3084  1  0.80197600  0.94316500  0.41158200  1
  C  3086  1  0.77358000  0.96398900  0.42689300  1
  C  3089  1  0.74241900  0.97809200  0.44570500  1
  C  3095  1  0.27956800  0.94420400  0.09445000  1
  C  3097  1  0.30741000  0.96537000  0.11002000  1
  C  3098  1  0.30176000  0.98262000  0.09751300  1
  C  3100  1  0.27336600  0.96181800  0.08215600  1
  C  3103  1  0.24204800  0.94801800  0.06340800  1
  C  3109  1  0.52991400  0.30331600  0.77274900  1
  C  3111  1  0.55763800  0.31881200  0.75128400  1
  C  3112  1  0.55188300  0.30630000  0.73410500  1
  C  3114  1  0.52354600  0.29106800  0.75521000  1
  C  3117  1  0.49235300  0.27232400  0.76943200  1
  C  3123  1  0.02943510  0.62339500  0.73537900  1
  C  3125  1  0.05748610  0.60793500  0.75643400  1
  C  3126  1  0.05190210  0.62039300  0.77369300  1
  C  3128  1  0.02328710  0.63563500  0.75299800  1
  C  3131  1  0.99207800  0.65456000  0.73915700  1
  C  3137  1  0.18380300  0.56506800  0.14181700  1
  C  3139  1  0.15528500  0.55188200  0.16336100  1
  C  3140  1  0.14104500  0.56651600  0.15446400  1
  C  3142  1  0.16900400  0.57952300  0.13292500  1
  C  3145  1  0.19126000  0.60175400  0.11227200  1
  C  3151  1  0.68379900  0.35778500  0.36324400  1
  C  3153  1  0.65528100  0.37105100  0.34175400  1
  C  3154  1  0.64103100  0.35636900  0.35055500  1
  C  3156  1  0.66896700  0.34330100  0.37207100  1
  C  3159  1  0.69122800  0.32113300  0.39272700  1
  C  3165  1  0.43460900  0.07399500  0.85826600  1
  C  3167  1  0.40645100  0.05276200  0.84410600  1
  C  3168  1  0.39190800  0.06144200  0.85850600  1
  C  3170  1  0.41950300  0.08265000  0.87255400  1
  C  3173  1  0.44140500  0.10352100  0.89488700  1
  C  3179  1  0.93464800  0.85281000  0.65081800  1
  C  3181  1  0.90638400  0.87386600  0.66509100  1
  C  3182  1  0.89183200  0.86494600  0.65080800  1
  C  3184  1  0.91957600  0.84405100  0.63658100  1
  C  3187  1  0.94149900  0.82325100  0.61418900  1
  C  3193  1  0.89872800  0.56485300  0.36335600  1
  C  3195  1  0.92742700  0.55157400  0.34213200  1
  C  3196  1  0.94155100  0.56628300  0.35101400  1
  C  3198  1  0.91340800  0.57948700  0.37207200  1
  C  3201  1  0.89125400  0.60165200  0.39265100  1
  C  3207  1  0.39873600  0.35811400  0.14174800  1
  C  3209  1  0.42747100  0.37137800  0.16297700  1
  C  3210  1  0.44158000  0.35665400  0.15410000  1
  C  3212  1  0.41342300  0.34348800  0.13301700  1
  C  3215  1  0.39125000  0.32127200  0.11252900  1
  C  3221  1  0.64802600  0.07414300  0.65127000  1
  C  3223  1  0.67637600  0.05303500  0.66537700  1
  C  3224  1  0.69075000  0.06178400  0.65081300  1
  C  3226  1  0.66296200  0.08275500  0.63677700  1
  C  3229  1  0.64105700  0.10349300  0.61432500  1
  C  3235  1  0.14799200  0.85276500  0.85781800  1
  C  3237  1  0.17635600  0.87375000  0.84357200  1
  C  3238  1  0.19079300  0.86492500  0.85803100  1
  C  3240  1  0.16295700  0.84420200  0.87233200  1
  C  3243  1  0.14109400  0.82347100  0.89475600  1
  C  3249  1  0.39822400  0.35804600  0.86609900  1
  C  3251  1  0.42646000  0.37112100  0.84405800  1
  C  3252  1  0.44080600  0.35630400  0.85250900  1
  C  3254  1  0.41315600  0.34338400  0.87447500  1
  C  3257  1  0.39133000  0.32085300  0.89495500  1
  C  3263  1  0.89890900  0.56428200  0.63853200  1
  C  3265  1  0.92727800  0.55385600  0.66192300  1
  C  3266  1  0.94118800  0.56851100  0.65250300  1
  C  3268  1  0.91349700  0.57857200  0.62915100  1
  C  3271  1  0.89161800  0.60156600  0.60966100  1
  C  3277  1  0.14889100  0.84888000  0.14932800  1
  C  3279  1  0.17738000  0.87097400  0.16167100  1
  C  3280  1  0.19143000  0.86194800  0.14698300  1
  C  3282  1  0.16352400  0.83985200  0.13488200  1
  C  3285  1  0.14122800  0.81936900  0.11257600  1
  C  3291  1  0.64931100  0.07455400  0.35646300  1
  C  3293  1  0.67831700  0.05282300  0.34461200  1
  C  3294  1  0.69207900  0.06220200  0.35935600  1
  C  3296  1  0.66364700  0.08388500  0.37098300  1
  C  3299  1  0.64091000  0.10403300  0.39311400  1
  C  3305  1  0.68488400  0.35894500  0.63866700  1
  C  3307  1  0.65674500  0.37103400  0.66142900  1
  C  3308  1  0.64250800  0.35635400  0.65262900  1
  C  3310  1  0.67004900  0.34438700  0.63009600  1
  C  3313  1  0.69151400  0.32140300  0.61017200  1
  C  3319  1  0.18430900  0.56443200  0.86681100  1
  C  3321  1  0.15557900  0.55289000  0.84444200  1
  C  3322  1  0.14175400  0.56786600  0.85339200  1
  C  3324  1  0.16981800  0.57915900  0.87563500  1
  C  3327  1  0.19185100  0.60186000  0.89522400  1
  C  3333  1  0.93350600  0.84815900  0.35542700  1
  C  3335  1  0.90465600  0.87072900  0.34469200  1
  C  3336  1  0.89107100  0.86111000  0.35948000  1
  C  3338  1  0.91929700  0.83857300  0.36989500  1
  C  3341  1  0.94177400  0.81891900  0.39249700  1
  C  3347  1  0.43431100  0.07407900  0.14916400  1
  C  3349  1  0.40544500  0.05310700  0.16262100  1
  C  3350  1  0.39144800  0.06194500  0.14774300  1
  C  3352  1  0.41981500  0.08264600  0.13425500  1
  C  3355  1  0.44227300  0.10334300  0.11217400  1
  C  3361  1  0.24392800  0.73466700  0.06819400  1
  C  3363  1  0.23171300  0.70274800  0.08494400  1
  C  3364  1  0.24476100  0.69035800  0.07176100  1
  C  3366  1  0.25603700  0.72194100  0.05421800  1
  C  3369  1  0.27996100  0.74539500  0.03535200  1
  C  3375  1  0.74297700  0.19016100  0.43850500  1
  C  3377  1  0.73073300  0.22177800  0.42139400  1
  C  3378  1  0.74374400  0.23419300  0.43454300  1
  C  3380  1  0.75515900  0.20294600  0.45233600  1
  C  3383  1  0.78060500  0.18059900  0.47049600  1
  C  3389  1  0.49662600  0.14932100  0.02565000  1
  C  3391  1  0.48243100  0.13267200  0.99463000  1
  C  3392  1  0.49457900  0.14613900  0.98169900  1
  C  3394  1  0.50748300  0.16377900  0.01243400  1
  C  3397  1  0.53020200  0.18418100  0.03617900  1
  C  3403  1  0.99748400  0.77742600  0.48197200  1
  C  3405  1  0.98282700  0.79434700  0.51275500  1
  C  3406  1  0.99500400  0.78125300  0.52608300  1
  C  3408  1  0.00848508  0.76342400  0.49558600  1
  C  3411  1  0.03131710  0.74264900  0.47239000  1
  C  3417  1  0.83890500  0.73403100  0.43769800  1
  C  3419  1  0.85164600  0.70232800  0.42101100  1
  C  3420  1  0.83844000  0.68977000  0.43392500  1
  C  3422  1  0.82654500  0.72110900  0.45134900  1
  C  3425  1  0.80219600  0.74400200  0.47032300  1
  C  3431  1  0.33998400  0.19023600  0.06778900  1
  C  3433  1  0.35212000  0.22220400  0.08414400  1
  C  3434  1  0.33906700  0.23433100  0.07071600  1
  C  3436  1  0.32783300  0.20268900  0.05358000  1
  C  3439  1  0.30315700  0.17941100  0.03550500  1
  C  3445  1  0.58542700  0.14877200  0.48189100  1
  C  3447  1  0.59956000  0.13189000  0.51298000  1
  C  3448  1  0.58719100  0.14501700  0.52605900  1
  C  3450  1  0.57438900  0.16294300  0.49525600  1
  C  3453  1  0.55222000  0.18399000  0.47143300  1
  C  3459  1  0.08610510  0.77644100  0.02528900  1
  C  3461  1  0.10025800  0.79384400  0.99462100  1
  C  3462  1  0.08832210  0.78050300  0.98141500  1
  C  3464  1  0.07527410  0.76228200  0.01182100  1
  C  3467  1  0.05172610  0.74191600  0.03470200  1
  C  3473  1  0.33936400  0.18914900  0.93902300  1
  C  3475  1  0.35256900  0.22100400  0.92304800  1
  C  3476  1  0.33986400  0.23327600  0.93658500  1
  C  3478  1  0.32750800  0.20177100  0.95329400  1
  C  3481  1  0.30287700  0.17850500  0.97157500  1
  C  3487  1  0.83823000  0.73571600  0.56793600  1
  C  3489  1  0.85192500  0.70368900  0.58342500  1
  C  3490  1  0.83892600  0.69133300  0.57019800  1
  C  3492  1  0.82622800  0.72300700  0.55378400  1
  C  3495  1  0.80393000  0.74755100  0.53384500  1
  C  3501  1  0.74367000  0.18920400  0.56734700  1
  C  3503  1  0.72995100  0.22126200  0.58241100  1
  C  3504  1  0.74296900  0.23337900  0.56896300  1
  C  3506  1  0.75562700  0.20166000  0.55293100  1
  C  3509  1  0.77872700  0.17716200  0.53397000  1
  C  3515  1  0.24435900  0.73523300  0.93856900  1
  C  3517  1  0.23118300  0.70350000  0.92225800  1
  C  3518  1  0.24395200  0.69091100  0.93554400  1
  C  3520  1  0.25619500  0.72230300  0.95265400  1
  C  3523  1  0.28004500  0.74571700  0.97168100  1
  C  3529  1  0.99347300  0.64596100  0.52517100  1
  C  3531  1  0.97823800  0.62929600  0.49452400  1
  C  3532  1  0.99074100  0.64181800  0.48099900  1
  C  3534  1  0.00544908  0.65914700  0.51140100  1
  C  3537  1  0.02893710  0.67990100  0.53439200  1
  C  3543  1  0.49264400  0.27715500  0.98138700  1
  C  3545  1  0.47768600  0.29352100  0.01220200  1
  C  3546  1  0.49003100  0.28055400  0.02540800  1
  C  3548  1  0.50440900  0.26347200  0.99480400  1
  C  3551  1  0.52784600  0.24315000  0.97125300  1
  C  3557  1  0.09011810  0.64690400  0.98172400  1
  C  3559  1  0.10495600  0.62980400  0.01227700  1
  C  3560  1  0.09256810  0.64247100  0.02569200  1
  C  3562  1  0.07826710  0.66021500  0.99538000  1
  C  3565  1  0.05414010  0.68053200  0.97257500  1
  C  3571  1  0.58930000  0.27758000  0.52532900  1
  C  3573  1  0.60405300  0.29436900  0.49447500  1
  C  3574  1  0.59168000  0.28161700  0.48108700  1
  C  3576  1  0.57750900  0.26411900  0.51174500  1
  C  3579  1  0.55453400  0.24321200  0.53524900  1
  N  898  1  0.96869300  0.62346700  0.01324900  1
  N  901  1  0.95890400  0.59126500  0.98852200  1
  N  909  1  0.95244400  0.60646300  0.04081500  1
  N  910  1  0.95755100  0.61063700  0.96142900  1
  N  912  1  0.46874000  0.29954900  0.49192700  1
  N  915  1  0.45884700  0.33174500  0.51666300  1
  N  923  1  0.45251000  0.31658800  0.46439200  1
  N  924  1  0.45764200  0.31245900  0.54384000  1
  N  926  1  0.21749700  0.20404500  0.91627400  1
  N  929  1  0.20707400  0.22806200  0.88360500  1
  N  937  1  0.20263200  0.17571300  0.89938800  1
  N  938  1  0.20478900  0.25579400  0.90248600  1
  N  940  1  0.71753200  0.72282200  0.59274600  1
  N  943  1  0.70746100  0.69882900  0.62542800  1
  N  951  1  0.70234500  0.75099100  0.60948600  1
  N  952  1  0.70427300  0.67144700  0.60656000  1
  N  954  1  0.40364000  0.62359000  0.49189400  1
  N  957  1  0.41329500  0.59147200  0.51690400  1
  N  965  1  0.41982300  0.60638900  0.46447700  1
  N  966  1  0.41488900  0.61094700  0.54381000  1
  N  968  1  0.90353000  0.29944600  0.01317300  1
  N  971  1  0.91323600  0.33157300  0.98814600  1
  N  979  1  0.91974500  0.31666300  0.04053100  1
  N  980  1  0.91452800  0.31222000  0.96113300  1
  N  982  1  0.15477700  0.20414700  0.59247100  1
  N  985  1  0.16497300  0.22842600  0.62489700  1
  N  993  1  0.16978800  0.17600200  0.60959200  1
  N  994  1  0.16763400  0.25590600  0.60558400  1
  N  996  1  0.65485400  0.72242200  0.91640600  1
  N  999  1  0.66459000  0.69853200  0.88364300  1
  N  1007  1  0.66980900  0.75069000  0.89941500  1
  N  1008  1  0.66776900  0.67101400  0.90231500  1
  N  1010  1  0.65470100  0.71952000  0.09117300  1
  N  1013  1  0.66584300  0.69480000  0.12309400  1
  N  1021  1  0.66923000  0.74755500  0.10877600  1
  N  1022  1  0.66874400  0.66767400  0.10363100  1
  N  1024  1  0.15456600  0.20355100  0.41424300  1
  N  1027  1  0.16536500  0.22813500  0.38212100  1
  N  1035  1  0.16955000  0.17559500  0.39704500  1
  N  1036  1  0.16870900  0.25508200  0.40164700  1
  N  1038  1  0.71745800  0.71917100  0.41430600  1
  N  1041  1  0.70675700  0.69447100  0.38235200  1
  N  1049  1  0.70279900  0.74719400  0.39678800  1
  N  1050  1  0.70361300  0.66733500  0.40210000  1
  N  1052  1  0.21791000  0.20358100  0.09104700  1
  N  1055  1  0.20723800  0.22831200  0.12292100  1
  N  1063  1  0.20333200  0.17564900  0.10868100  1
  N  1064  1  0.20378500  0.25525600  0.10335800  1
  N  1066  1  0.46569500  0.12512000  0.51508600  1
  N  1069  1  0.45664200  0.09247800  0.49067700  1
  N  1077  1  0.45032200  0.10757800  0.54305600  1
  N  1078  1  0.45403800  0.11137900  0.46315300  1
  N  1080  1  0.96563900  0.80137500  0.99393000  1
  N  1083  1  0.95685400  0.83392400  0.01855200  1
  N  1091  1  0.94954100  0.81870900  0.96629200  1
  N  1092  1  0.95441200  0.81469000  0.04590400  1
  N  1094  1  0.90658400  0.12508200  0.99367100  1
  N  1097  1  0.91548700  0.09267300  0.01857500  1
  N  1105  1  0.92218200  0.10740100  0.96601400  1
  N  1106  1  0.91782600  0.11214200  0.04587700  1
  N  1108  1  0.40664200  0.80135800  0.51512400  1
  N  1111  1  0.41510000  0.83393200  0.49043700  1
  N  1119  1  0.42241600  0.81877700  0.54275500  1
  N  1120  1  0.41815400  0.81486000  0.46319200  1
  N  1122  1  0.93176100  0.44616500  0.11108500  1
  N  1125  1  0.94255500  0.47874600  0.08731300  1
  N  1133  1  0.95951600  0.42519100  0.10089100  1
  N  1134  1  0.91646600  0.50025400  0.10429000  1
  N  1136  1  0.43184200  0.47714200  0.39406700  1
  N  1139  1  0.44258900  0.44445500  0.41771500  1
  N  1147  1  0.45959600  0.49806900  0.40438900  1
  N  1148  1  0.41650200  0.42306200  0.40066300  1
  N  1150  1  0.18183200  0.10506700  0.73896100  1
  N  1153  1  0.19268500  0.12862700  0.77157600  1
  N  1161  1  0.20960600  0.11528900  0.71802900  1
  N  1162  1  0.16658900  0.11162800  0.79300300  1
  N  1164  1  0.68178200  0.82191900  0.76972300  1
  N  1167  1  0.69263900  0.79817900  0.73723500  1
  N  1175  1  0.70956300  0.81183700  0.79067600  1
  N  1176  1  0.66656100  0.81509000  0.71569400  1
  N  1178  1  0.94103100  0.47706100  0.89806200  1
  N  1181  1  0.92947100  0.44463600  0.92168200  1
  N  1189  1  0.91404700  0.49898400  0.90912200  1
  N  1190  1  0.95533900  0.42248700  0.90527200  1
  N  1192  1  0.44117000  0.44627600  0.60706400  1
  N  1195  1  0.42954700  0.47862900  0.58336700  1
  N  1203  1  0.41422700  0.42430600  0.59606100  1
  N  1204  1  0.45545200  0.50085900  0.59969300  1
  N  1206  1  0.69028000  0.81786500  0.26854300  1
  N  1209  1  0.67974200  0.79436100  0.23578500  1
  N  1217  1  0.66222100  0.80759400  0.28916100  1
  N  1218  1  0.70606400  0.81136700  0.21462100  1
  N  1220  1  0.19049700  0.10483500  0.23764500  1
  N  1223  1  0.17981700  0.12863500  0.27013900  1
  N  1231  1  0.16256700  0.11488000  0.21677300  1
  N  1232  1  0.20609000  0.11177600  0.29161400  1
  N  1234  1  0.43195000  0.94722900  0.61184800  1
  N  1237  1  0.44246300  0.98010900  0.58819000  1
  N  1245  1  0.45984300  0.92703400  0.60134900  1
  N  1246  1  0.41626900  0.00080200  0.60518200  1
  N  1248  1  0.93185600  0.97860800  0.89714000  1
  N  1251  1  0.94238900  0.94591100  0.92108200  1
  N  1259  1  0.95981700  0.99874900  0.90736600  1
  N  1260  1  0.91614600  0.92514400  0.90423900  1
  N  1262  1  0.68110500  0.60626700  0.23735600  1
  N  1265  1  0.69288200  0.62990700  0.26974700  1
  N  1273  1  0.70805800  0.61726200  0.21597700  1
  N  1274  1  0.66700200  0.61374900  0.29144300  1
  N  1276  1  0.18119000  0.31656800  0.26825900  1
  N  1279  1  0.19288300  0.29300300  0.23579000  1
  N  1287  1  0.20810400  0.30543800  0.28964900  1
  N  1288  1  0.16703500  0.30924900  0.21416000  1
  N  1290  1  0.44109600  0.97845900  0.40086900  1
  N  1293  1  0.42971300  0.94591600  0.42464000  1
  N  1301  1  0.41389100  0.99946800  0.41179300  1
  N  1302  1  0.45571600  0.92452400  0.40832900  1
  N  1304  1  0.94088700  0.94726100  0.10808200  1
  N  1307  1  0.92951000  0.97988000  0.08444700  1
  N  1315  1  0.91380500  0.92608100  0.09691100  1
  N  1316  1  0.95552300  0.00127100  0.10072800  1
  N  1318  1  0.19120700  0.31694400  0.76947200  1
  N  1321  1  0.17958600  0.29330400  0.73705300  1
  N  1329  1  0.16410400  0.30602400  0.79081000  1
  N  1330  1  0.20559100  0.30951000  0.71535800  1
  N  1332  1  0.69082100  0.60981700  0.73839400  1
  N  1335  1  0.67953700  0.63335000  0.77101500  1
  N  1343  1  0.66346400  0.62077700  0.71738700  1
  N  1344  1  0.70573500  0.61708100  0.79231800  1
  N  1346  1  0.82091200  0.55168700  0.15668100  1
  N  1349  1  0.79330000  0.57952700  0.13976300  1
  N  1357  1  0.84835200  0.56375700  0.13429700  1
  N  1358  1  0.76567900  0.56917700  0.15927300  1
  N  1360  1  0.32089600  0.37123400  0.34844900  1
  N  1363  1  0.29325900  0.34330100  0.36521900  1
  N  1371  1  0.34834000  0.35922600  0.37081200  1
  N  1372  1  0.26558900  0.35415000  0.34578500  1
  N  1374  1  0.07203900  0.05943100  0.84447100  1
  N  1377  1  0.04378100  0.07587200  0.87196700  1
  N  1385  1  0.09909200  0.08162200  0.85708500  1
  N  1386  1  0.01644400  0.05677100  0.85996100  1
  N  1388  1  0.57204300  0.86736200  0.66461900  1
  N  1391  1  0.54381200  0.85062900  0.63733300  1
  N  1399  1  0.59916500  0.84529100  0.65187700  1
  N  1400  1  0.51633000  0.86931200  0.64902200  1
  N  1402  1  0.55127700  0.55134300  0.34872300  1
  N  1405  1  0.57867000  0.57940100  0.36545500  1
  N  1413  1  0.52385100  0.56324400  0.37116700  1
  N  1414  1  0.60663200  0.56869100  0.34709100  1
  N  1416  1  0.05131700  0.37161700  0.15637800  1
  N  1419  1  0.07865800  0.34353200  0.13968900  1
  N  1427  1  0.02382100  0.35972200  0.13397900  1
  N  1428  1  0.10661000  0.35390600  0.15805500  1
  N  1430  1  0.30027000  0.05965700  0.66514100  1
  N  1433  1  0.32820600  0.07609700  0.63731100  1
  N  1441  1  0.27321200  0.08202200  0.65267600  1
  N  1442  1  0.35582300  0.05776600  0.64911600  1
  N  1444  1  0.80022900  0.86721100  0.84390800  1
  N  1447  1  0.82825900  0.85069800  0.87162800  1
  N  1455  1  0.77309700  0.84499800  0.85645500  1
  N  1456  1  0.85590400  0.86894900  0.85936500  1
  N  1458  1  0.05048600  0.37146200  0.85118600  1
  N  1461  1  0.07825200  0.34327300  0.86726900  1
  N  1469  1  0.02333800  0.35954200  0.87417300  1
  N  1470  1  0.10576700  0.35400200  0.84760800  1
  N  1472  1  0.55136300  0.55235400  0.65461800  1
  N  1475  1  0.57831100  0.58003100  0.63672200  1
  N  1483  1  0.52394800  0.56269600  0.63070400  1
  N  1484  1  0.60527200  0.57444900  0.65751900  1
  N  1486  1  0.80133200  0.86406900  0.16229000  1
  N  1489  1  0.82858600  0.84698300  0.13442200  1
  N  1497  1  0.77394800  0.84126000  0.15079800  1
  N  1498  1  0.85594100  0.86677600  0.14262800  1
  N  1500  1  0.30213300  0.05935900  0.34372500  1
  N  1503  1  0.32883000  0.07711800  0.37172100  1
  N  1511  1  0.27423700  0.08186600  0.35497700  1
  N  1512  1  0.35657600  0.05752400  0.36404100  1
  N  1514  1  0.32217500  0.37180100  0.65406500  1
  N  1517  1  0.29464200  0.34387100  0.63753500  1
  N  1525  1  0.34915600  0.36057200  0.63037900  1
  N  1526  1  0.26737100  0.35219000  0.65720500  1
  N  1528  1  0.82111900  0.55173700  0.85150200  1
  N  1531  1  0.79433700  0.58012700  0.86844400  1
  N  1539  1  0.84867600  0.56257700  0.87488900  1
  N  1540  1  0.76652500  0.57217300  0.84922100  1
  N  1542  1  0.57022900  0.86388000  0.34324100  1
  N  1545  1  0.54383000  0.84566500  0.37121300  1
  N  1553  1  0.59789600  0.84051900  0.35358800  1
  N  1554  1  0.51640500  0.86546300  0.36535600  1
  N  1556  1  0.07113400  0.05963700  0.16286900  1
  N  1559  1  0.04404500  0.07611600  0.13437900  1
  N  1567  1  0.09866700  0.08190800  0.15083700  1
  N  1568  1  0.01599500  0.05794400  0.14477200  1
  N  1570  1  0.87703100  0.72410400  0.08298800  1
  N  1573  1  0.90074600  0.70092500  0.05705200  1
  N  1581  1  0.89070100  0.75569100  0.06781900  1
  N  1582  1  0.89486200  0.67016900  0.07353300  1
  N  1584  1  0.37627400  0.20048200  0.42343500  1
  N  1587  1  0.39980700  0.22389200  0.44934300  1
  N  1595  1  0.39169600  0.16959900  0.43704200  1
  N  1596  1  0.39423100  0.25410300  0.43234300  1
  N  1598  1  0.12942400  0.13428000  0.01585300  1
  N  1601  1  0.15093500  0.16101800  0.99151200  1
  N  1609  1  0.14704900  0.14750800  0.04577200  1
  N  1610  1  0.14430300  0.14392700  0.96163400  1
  N  1612  1  0.62993900  0.79239400  0.49152700  1
  N  1615  1  0.65167500  0.76647500  0.51646700  1
  N  1623  1  0.64761100  0.77856700  0.46159300  1
  N  1624  1  0.64445400  0.78350700  0.54630500  1
  N  1626  1  0.49549800  0.72365500  0.42295400  1
  N  1629  1  0.47163800  0.70013700  0.44846400  1
  N  1637  1  0.47994300  0.75475300  0.43627400  1
  N  1638  1  0.47785800  0.66962500  0.43201400  1
  N  1640  1  0.99613400  0.20088000  0.08263000  1
  N  1643  1  0.97260500  0.22370300  0.05610300  1
  N  1651  1  0.98064800  0.16976500  0.06991500  1
  N  1652  1  0.97801200  0.25426200  0.07265600  1
  N  1654  1  0.24240600  0.13386700  0.49170300  1
  N  1657  1  0.22031800  0.15989200  0.51619000  1
  N  1665  1  0.22629100  0.14889300  0.46117500  1
  N  1666  1  0.22740200  0.14305700  0.54637900  1
  N  1668  1  0.74275300  0.79177300  0.01581400  1
  N  1671  1  0.72146100  0.76543200  0.99096200  1
  N  1679  1  0.72518800  0.77769600  0.04543400  1
  N  1680  1  0.72805500  0.78294900  0.96138900  1
  N  1682  1  0.99595900  0.19968800  0.92437500  1
  N  1685  1  0.97295700  0.22278700  0.95097200  1
  N  1693  1  0.97986400  0.16866600  0.93700200  1
  N  1694  1  0.97917300  0.25325400  0.93473400  1
  N  1696  1  0.49538000  0.72505200  0.58209400  1
  N  1699  1  0.47172200  0.70196500  0.55614200  1
  N  1707  1  0.48052100  0.75671900  0.56848900  1
  N  1708  1  0.47867900  0.67110000  0.57169300  1
  N  1710  1  0.37625800  0.19993900  0.58155100  1
  N  1713  1  0.39962500  0.22270000  0.55494700  1
  N  1721  1  0.39274700  0.16880100  0.57008100  1
  N  1722  1  0.39305400  0.25342000  0.57057500  1
  N  1724  1  0.87710000  0.72484300  0.92396200  1
  N  1727  1  0.90034600  0.70130100  0.95001100  1
  N  1735  1  0.89155700  0.75622500  0.93861000  1
  N  1736  1  0.89380300  0.67071400  0.93383800  1
  N  1738  1  0.62533400  0.63146600  0.51569800  1
  N  1741  1  0.64828300  0.65608600  0.49047200  1
  N  1749  1  0.64252000  0.64484200  0.54581900  1
  N  1750  1  0.63853800  0.63946300  0.46043800  1
  N  1752  1  0.12477600  0.29172900  0.99103300  1
  N  1755  1  0.14738100  0.26624100  0.01576700  1
  N  1763  1  0.14207200  0.27892400  0.96098800  1
  N  1764  1  0.13817100  0.28290200  0.04582300  1
  N  1766  1  0.74744700  0.63208600  0.99113400  1
  N  1769  1  0.72478500  0.65700800  0.01628500  1
  N  1777  1  0.73037200  0.64564600  0.96126300  1
  N  1778  1  0.73413600  0.63997400  0.04613000  1
  N  1780  1  0.24678300  0.29215400  0.51569300  1
  N  1783  1  0.22394100  0.26718500  0.49077000  1
  N  1791  1  0.23130300  0.27704200  0.54625400  1
  N  1792  1  0.23339700  0.28378300  0.46046400  1
  N  2690  1  0.32393500  0.62346700  0.01324900  1
  N  2693  1  0.31414600  0.59126500  0.98852200  1
  N  2701  1  0.30768600  0.60646300  0.04081500  1
  N  2702  1  0.31279300  0.61063700  0.96142900  1
  N  2704  1  0.82398200  0.29954900  0.49192700  1
  N  2707  1  0.81408900  0.33174500  0.51666300  1
  N  2715  1  0.80775200  0.31658800  0.46439200  1
  N  2716  1  0.81288400  0.31245900  0.54384000  1
  N  2718  1  0.57273900  0.20404500  0.91627400  1
  N  2721  1  0.56231600  0.22806200  0.88360500  1
  N  2729  1  0.55787400  0.17571300  0.89938800  1
  N  2730  1  0.56003100  0.25579400  0.90248600  1
  N  2732  1  0.07277410  0.72282200  0.59274600  1
  N  2735  1  0.06270310  0.69882900  0.62542800  1
  N  2743  1  0.05758710  0.75099100  0.60948600  1
  N  2744  1  0.05951510  0.67144700  0.60656000  1
  N  2746  1  0.75888200  0.62359000  0.49189400  1
  N  2749  1  0.76853700  0.59147200  0.51690400  1
  N  2757  1  0.77506500  0.60638900  0.46447700  1
  N  2758  1  0.77013100  0.61094700  0.54381000  1
  N  2760  1  0.25877200  0.29944600  0.01317300  1
  N  2763  1  0.26847800  0.33157300  0.98814600  1
  N  2771  1  0.27498700  0.31666300  0.04053100  1
  N  2772  1  0.26977000  0.31222000  0.96113300  1
  N  2774  1  0.51001900  0.20414700  0.59247100  1
  N  2777  1  0.52021500  0.22842600  0.62489700  1
  N  2785  1  0.52503000  0.17600200  0.60959200  1
  N  2786  1  0.52287600  0.25590600  0.60558400  1
  N  2788  1  0.01009610  0.72242200  0.91640600  1
  N  2791  1  0.01983210  0.69853200  0.88364300  1
  N  2799  1  0.02505110  0.75069000  0.89941500  1
  N  2800  1  0.02301110  0.67101400  0.90231500  1
  N  2802  1  0.00994308  0.71952000  0.09117300  1
  N  2805  1  0.02108510  0.69480000  0.12309400  1
  N  2813  1  0.02447210  0.74755500  0.10877600  1
  N  2814  1  0.02398610  0.66767400  0.10363100  1
  N  2816  1  0.50980800  0.20355100  0.41424300  1
  N  2819  1  0.52060700  0.22813500  0.38212100  1
  N  2827  1  0.52479200  0.17559500  0.39704500  1
  N  2828  1  0.52395100  0.25508200  0.40164700  1
  N  2830  1  0.07270010  0.71917100  0.41430600  1
  N  2833  1  0.06199910  0.69447100  0.38235200  1
  N  2841  1  0.05804110  0.74719400  0.39678800  1
  N  2842  1  0.05885510  0.66733500  0.40210000  1
  N  2844  1  0.57315200  0.20358100  0.09104700  1
  N  2847  1  0.56248000  0.22831200  0.12292100  1
  N  2855  1  0.55857400  0.17564900  0.10868100  1
  N  2856  1  0.55902700  0.25525600  0.10335800  1
  N  2858  1  0.82093700  0.12512000  0.51508600  1
  N  2861  1  0.81188400  0.09247800  0.49067700  1
  N  2869  1  0.80556400  0.10757800  0.54305600  1
  N  2870  1  0.80928000  0.11137900  0.46315300  1
  N  2872  1  0.32088100  0.80137500  0.99393000  1
  N  2875  1  0.31209600  0.83392400  0.01855200  1
  N  2883  1  0.30478300  0.81870900  0.96629200  1
  N  2884  1  0.30965400  0.81469000  0.04590400  1
  N  2886  1  0.26182600  0.12508200  0.99367100  1
  N  2889  1  0.27072900  0.09267300  0.01857500  1
  N  2897  1  0.27742400  0.10740100  0.96601400  1
  N  2898  1  0.27306800  0.11214200  0.04587700  1
  N  2900  1  0.76188400  0.80135800  0.51512400  1
  N  2903  1  0.77034200  0.83393200  0.49043700  1
  N  2911  1  0.77765800  0.81877700  0.54275500  1
  N  2912  1  0.77339600  0.81486000  0.46319200  1
  N  2914  1  0.28700300  0.44616500  0.11108500  1
  N  2917  1  0.29779700  0.47874600  0.08731300  1
  N  2925  1  0.31475800  0.42519100  0.10089100  1
  N  2926  1  0.27170800  0.50025400  0.10429000  1
  N  2928  1  0.78708400  0.47714200  0.39406700  1
  N  2931  1  0.79783100  0.44445500  0.41771500  1
  N  2939  1  0.81483800  0.49806900  0.40438900  1
  N  2940  1  0.77174400  0.42306200  0.40066300  1
  N  2942  1  0.53707400  0.10506700  0.73896100  1
  N  2945  1  0.54792700  0.12862700  0.77157600  1
  N  2953  1  0.56484800  0.11528900  0.71802900  1
  N  2954  1  0.52183100  0.11162800  0.79300300  1
  N  2956  1  0.03702410  0.82191900  0.76972300  1
  N  2959  1  0.04788110  0.79817900  0.73723500  1
  N  2967  1  0.06480510  0.81183700  0.79067600  1
  N  2968  1  0.02180310  0.81509000  0.71569400  1
  N  2970  1  0.29627300  0.47706100  0.89806200  1
  N  2973  1  0.28471300  0.44463600  0.92168200  1
  N  2981  1  0.26928900  0.49898400  0.90912200  1
  N  2982  1  0.31058100  0.42248700  0.90527200  1
  N  2984  1  0.79641200  0.44627600  0.60706400  1
  N  2987  1  0.78478900  0.47862900  0.58336700  1
  N  2995  1  0.76946900  0.42430600  0.59606100  1
  N  2996  1  0.81069400  0.50085900  0.59969300  1
  N  2998  1  0.04552210  0.81786500  0.26854300  1
  N  3001  1  0.03498410  0.79436100  0.23578500  1
  N  3009  1  0.01746310  0.80759400  0.28916100  1
  N  3010  1  0.06130610  0.81136700  0.21462100  1
  N  3012  1  0.54573900  0.10483500  0.23764500  1
  N  3015  1  0.53505900  0.12863500  0.27013900  1
  N  3023  1  0.51780900  0.11488000  0.21677300  1
  N  3024  1  0.56133200  0.11177600  0.29161400  1
  N  3026  1  0.78719200  0.94722900  0.61184800  1
  N  3029  1  0.79770500  0.98010900  0.58819000  1
  N  3037  1  0.81508500  0.92703400  0.60134900  1
  N  3038  1  0.77151100  0.00080200  0.60518200  1
  N  3040  1  0.28709800  0.97860800  0.89714000  1
  N  3043  1  0.29763100  0.94591100  0.92108200  1
  N  3051  1  0.31505900  0.99874900  0.90736600  1
  N  3052  1  0.27138800  0.92514400  0.90423900  1
  N  3054  1  0.03634710  0.60626700  0.23735600  1
  N  3057  1  0.04812410  0.62990700  0.26974700  1
  N  3065  1  0.06330010  0.61726200  0.21597700  1
  N  3066  1  0.02224410  0.61374900  0.29144300  1
  N  3068  1  0.53643200  0.31656800  0.26825900  1
  N  3071  1  0.54812500  0.29300300  0.23579000  1
  N  3079  1  0.56334600  0.30543800  0.28964900  1
  N  3080  1  0.52227700  0.30924900  0.21416000  1
  N  3082  1  0.79633800  0.97845900  0.40086900  1
  N  3085  1  0.78495500  0.94591600  0.42464000  1
  N  3093  1  0.76913300  0.99946800  0.41179300  1
  N  3094  1  0.81095800  0.92452400  0.40832900  1
  N  3096  1  0.29612900  0.94726100  0.10808200  1
  N  3099  1  0.28475200  0.97988000  0.08444700  1
  N  3107  1  0.26904700  0.92608100  0.09691100  1
  N  3108  1  0.31076500  0.00127100  0.10072800  1
  N  3110  1  0.54644900  0.31694400  0.76947200  1
  N  3113  1  0.53482800  0.29330400  0.73705300  1
  N  3121  1  0.51934600  0.30602400  0.79081000  1
  N  3122  1  0.56083300  0.30951000  0.71535800  1
  N  3124  1  0.04606310  0.60981700  0.73839400  1
  N  3127  1  0.03477910  0.63335000  0.77101500  1
  N  3135  1  0.01870610  0.62077700  0.71738700  1
  N  3136  1  0.06097710  0.61708100  0.79231800  1
  N  3138  1  0.17615400  0.55168700  0.15668100  1
  N  3141  1  0.14854200  0.57952700  0.13976300  1
  N  3149  1  0.20359400  0.56375700  0.13429700  1
  N  3150  1  0.12092100  0.56917700  0.15927300  1
  N  3152  1  0.67613800  0.37123400  0.34844900  1
  N  3155  1  0.64850100  0.34330100  0.36521900  1
  N  3163  1  0.70358200  0.35922600  0.37081200  1
  N  3164  1  0.62083100  0.35415000  0.34578500  1
  N  3166  1  0.42728100  0.05943100  0.84447100  1
  N  3169  1  0.39902300  0.07587200  0.87196700  1
  N  3177  1  0.45433400  0.08162200  0.85708500  1
  N  3178  1  0.37168600  0.05677100  0.85996100  1
  N  3180  1  0.92728500  0.86736200  0.66461900  1
  N  3183  1  0.89905400  0.85062900  0.63733300  1
  N  3191  1  0.95440700  0.84529100  0.65187700  1
  N  3192  1  0.87157200  0.86931200  0.64902200  1
  N  3194  1  0.90651900  0.55134300  0.34872300  1
  N  3197  1  0.93391200  0.57940100  0.36545500  1
  N  3205  1  0.87909300  0.56324400  0.37116700  1
  N  3206  1  0.96187400  0.56869100  0.34709100  1
  N  3208  1  0.40655900  0.37161700  0.15637800  1
  N  3211  1  0.43390000  0.34353200  0.13968900  1
  N  3219  1  0.37906300  0.35972200  0.13397900  1
  N  3220  1  0.46185200  0.35390600  0.15805500  1
  N  3222  1  0.65551200  0.05965700  0.66514100  1
  N  3225  1  0.68344800  0.07609700  0.63731100  1
  N  3233  1  0.62845400  0.08202200  0.65267600  1
  N  3234  1  0.71106500  0.05776600  0.64911600  1
  N  3236  1  0.15547100  0.86721100  0.84390800  1
  N  3239  1  0.18350100  0.85069800  0.87162800  1
  N  3247  1  0.12833900  0.84499800  0.85645500  1
  N  3248  1  0.21114600  0.86894900  0.85936500  1
  N  3250  1  0.40572800  0.37146200  0.85118600  1
  N  3253  1  0.43349400  0.34327300  0.86726900  1
  N  3261  1  0.37858000  0.35954200  0.87417300  1
  N  3262  1  0.46100900  0.35400200  0.84760800  1
  N  3264  1  0.90660500  0.55235400  0.65461800  1
  N  3267  1  0.93355300  0.58003100  0.63672200  1
  N  3275  1  0.87919000  0.56269600  0.63070400  1
  N  3276  1  0.96051400  0.57444900  0.65751900  1
  N  3278  1  0.15657400  0.86406900  0.16229000  1
  N  3281  1  0.18382800  0.84698300  0.13442200  1
  N  3289  1  0.12919000  0.84126000  0.15079800  1
  N  3290  1  0.21118300  0.86677600  0.14262800  1
  N  3292  1  0.65737500  0.05935900  0.34372500  1
  N  3295  1  0.68407200  0.07711800  0.37172100  1
  N  3303  1  0.62947900  0.08186600  0.35497700  1
  N  3304  1  0.71181800  0.05752400  0.36404100  1
  N  3306  1  0.67741700  0.37180100  0.65406500  1
  N  3309  1  0.64988400  0.34387100  0.63753500  1
  N  3317  1  0.70439800  0.36057200  0.63037900  1
  N  3318  1  0.62261300  0.35219000  0.65720500  1
  N  3320  1  0.17636100  0.55173700  0.85150200  1
  N  3323  1  0.14957900  0.58012700  0.86844400  1
  N  3331  1  0.20391800  0.56257700  0.87488900  1
  N  3332  1  0.12176700  0.57217300  0.84922100  1
  N  3334  1  0.92547100  0.86388000  0.34324100  1
  N  3337  1  0.89907200  0.84566500  0.37121300  1
  N  3345  1  0.95313800  0.84051900  0.35358800  1
  N  3346  1  0.87164700  0.86546300  0.36535600  1
  N  3348  1  0.42637600  0.05963700  0.16286900  1
  N  3351  1  0.39928700  0.07611600  0.13437900  1
  N  3359  1  0.45390900  0.08190800  0.15083700  1
  N  3360  1  0.37123700  0.05794400  0.14477200  1
  N  3362  1  0.23227300  0.72410400  0.08298800  1
  N  3365  1  0.25598800  0.70092500  0.05705200  1
  N  3373  1  0.24594300  0.75569100  0.06781900  1
  N  3374  1  0.25010400  0.67016900  0.07353300  1
  N  3376  1  0.73151600  0.20048200  0.42343500  1
  N  3379  1  0.75504900  0.22389200  0.44934300  1
  N  3387  1  0.74693800  0.16959900  0.43704200  1
  N  3388  1  0.74947300  0.25410300  0.43234300  1
  N  3390  1  0.48466600  0.13428000  0.01585300  1
  N  3393  1  0.50617700  0.16101800  0.99151200  1
  N  3401  1  0.50229100  0.14750800  0.04577200  1
  N  3402  1  0.49954500  0.14392700  0.96163400  1
  N  3404  1  0.98518100  0.79239400  0.49152700  1
  N  3407  1  0.00691708  0.76647500  0.51646700  1
  N  3415  1  0.00285308  0.77856700  0.46159300  1
  N  3416  1  0.99969600  0.78350700  0.54630500  1
  N  3418  1  0.85074000  0.72365500  0.42295400  1
  N  3421  1  0.82688000  0.70013700  0.44846400  1
  N  3429  1  0.83518500  0.75475300  0.43627400  1
  N  3430  1  0.83310000  0.66962500  0.43201400  1
  N  3432  1  0.35137600  0.20088000  0.08263000  1
  N  3435  1  0.32784700  0.22370300  0.05610300  1
  N  3443  1  0.33589000  0.16976500  0.06991500  1
  N  3444  1  0.33325400  0.25426200  0.07265600  1
  N  3446  1  0.59764800  0.13386700  0.49170300  1
  N  3449  1  0.57556000  0.15989200  0.51619000  1
  N  3457  1  0.58153300  0.14889300  0.46117500  1
  N  3458  1  0.58264400  0.14305700  0.54637900  1
  N  3460  1  0.09799510  0.79177300  0.01581400  1
  N  3463  1  0.07670310  0.76543200  0.99096200  1
  N  3471  1  0.08043010  0.77769600  0.04543400  1
  N  3472  1  0.08329710  0.78294900  0.96138900  1
  N  3474  1  0.35120100  0.19968800  0.92437500  1
  N  3477  1  0.32819900  0.22278700  0.95097200  1
  N  3485  1  0.33510600  0.16866600  0.93700200  1
  N  3486  1  0.33441500  0.25325400  0.93473400  1
  N  3488  1  0.85062200  0.72505200  0.58209400  1
  N  3491  1  0.82696400  0.70196500  0.55614200  1
  N  3499  1  0.83576300  0.75671900  0.56848900  1
  N  3500  1  0.83392100  0.67110000  0.57169300  1
  N  3502  1  0.73150000  0.19993900  0.58155100  1
  N  3505  1  0.75486700  0.22270000  0.55494700  1
  N  3513  1  0.74798900  0.16880100  0.57008100  1
  N  3514  1  0.74829600  0.25342000  0.57057500  1
  N  3516  1  0.23234200  0.72484300  0.92396200  1
  N  3519  1  0.25558800  0.70130100  0.95001100  1
  N  3527  1  0.24679900  0.75622500  0.93861000  1
  N  3528  1  0.24904500  0.67071400  0.93383800  1
  N  3530  1  0.98057600  0.63146600  0.51569800  1
  N  3533  1  0.00352508  0.65608600  0.49047200  1
  N  3541  1  0.99776200  0.64484200  0.54581900  1
  N  3542  1  0.99378000  0.63946300  0.46043800  1
  N  3544  1  0.48001800  0.29172900  0.99103300  1
  N  3547  1  0.50262300  0.26624100  0.01576700  1
  N  3555  1  0.49731400  0.27892400  0.96098800  1
  N  3556  1  0.49341300  0.28290200  0.04582300  1
  N  3558  1  0.10268900  0.63208600  0.99113400  1
  N  3561  1  0.08002710  0.65700800  0.01628500  1
  N  3569  1  0.08561410  0.64564600  0.96126300  1
  N  3570  1  0.08937810  0.63997400  0.04613000  1
  N  3572  1  0.60202500  0.29215400  0.51569300  1
  N  3575  1  0.57918300  0.26718500  0.49077000  1
  N  3583  1  0.58654500  0.27704200  0.54625400  1
  N  3584  1  0.58863900  0.28378300  0.46046400  1
  O  17  1  0.92065100  0.55462500  0.07175800  1
  O  18  1  0.87433600  0.61226600  0.09219900  1
  O  45  1  0.42079000  0.36878000  0.43322900  1
  O  46  1  0.37445900  0.31162600  0.41290900  1
  O  73  1  0.17096200  0.14423200  0.84705900  1
  O  74  1  0.12463000  0.12396300  0.90425100  1
  O  101  1  0.67082600  0.78251300  0.66151700  1
  O  102  1  0.62453900  0.80305600  0.60400900  1
  O  129  1  0.45217400  0.55419700  0.43461200  1
  O  130  1  0.49806000  0.61182000  0.41313800  1
  O  157  1  0.95211400  0.36913000  0.07056000  1
  O  158  1  0.99794400  0.31181700  0.09188200  1
  O  185  1  0.20199200  0.14550300  0.66186600  1
  O  186  1  0.24776700  0.12406200  0.60423400  1
  O  213  1  0.70190600  0.78151300  0.84672400  1
  O  214  1  0.74766000  0.80283200  0.90392100  1
  O  241  1  0.95208100  0.36690800  0.93901800  1
  O  242  1  0.99825200  0.31167700  0.91717100  1
  O  269  1  0.45231500  0.55660200  0.56606800  1
  O  270  1  0.49846900  0.61243400  0.58827100  1
  O  297  1  0.70232000  0.77826500  0.16080200  1
  O  298  1  0.74763200  0.79766800  0.10274100  1
  O  325  1  0.20234400  0.14471700  0.34565900  1
  O  326  1  0.24777200  0.12555900  0.40416300  1
  O  353  1  0.41950800  0.36726000  0.56450000  1
  O  354  1  0.37389500  0.31189300  0.58770000  1
  O  381  1  0.91941300  0.55613000  0.94057800  1
  O  382  1  0.87403100  0.61207300  0.91718600  1
  O  409  1  0.66933500  0.77711200  0.34524300  1
  O  410  1  0.62450100  0.79765400  0.40388500  1
  O  437  1  0.16952100  0.14590500  0.16098000  1
  O  438  1  0.12466000  0.12632300  0.10290400  1
  O  465  1  0.41652900  0.05546500  0.57247600  1
  O  466  1  0.37024900  0.11039300  0.59363900  1
  O  493  1  0.91644700  0.87022000  0.93657000  1
  O  494  1  0.87001200  0.81535100  0.91440000  1
  O  521  1  0.66683100  0.64660400  0.34770600  1
  O  522  1  0.61913300  0.62213500  0.39968500  1
  O  549  1  0.16689700  0.27634700  0.15798300  1
  O  550  1  0.11917700  0.30071900  0.10631900  1
  O  577  1  0.95649400  0.05508400  0.93765500  1
  O  578  1  0.00241800  0.10981000  0.91497900  1
  O  605  1  0.45635800  0.87052300  0.57124900  1
  O  606  1  0.50247300  0.81530100  0.59355700  1
  O  633  1  0.70602200  0.64788800  0.15828000  1
  O  634  1  0.75326000  0.62239800  0.10671700  1
  O  661  1  0.20614800  0.27482500  0.34746300  1
  O  662  1  0.25328700  0.30057600  0.39951800  1
  O  689  1  0.45616600  0.86854000  0.44152200  1
  O  690  1  0.50260300  0.81520700  0.41766000  1
  O  717  1  0.95596700  0.05715800  0.06728300  1
  O  718  1  0.00244900  0.11016500  0.09030600  1
  O  745  1  0.20563800  0.27629400  0.65933400  1
  O  746  1  0.25260600  0.29899500  0.60593600  1
  O  773  1  0.70633200  0.65005900  0.84832600  1
  O  774  1  0.75277900  0.62653200  0.90137100  1
  O  801  1  0.91599600  0.86876200  0.06580400  1
  O  802  1  0.86969200  0.81537700  0.08996000  1
  O  829  1  0.41539200  0.05673300  0.44273500  1
  O  830  1  0.36947700  0.10965700  0.41795500  1
  O  857  1  0.16585100  0.27496400  0.84827500  1
  O  858  1  0.11968400  0.29878100  0.90136700  1
  O  885  1  0.66549700  0.65153000  0.65979700  1
  O  886  1  0.61940300  0.62684100  0.60632300  1
  O  904  1  0.94614000  0.56986300  0.01247700  1
  O  918  1  0.44642600  0.35326600  0.49252300  1
  O  932  1  0.19679800  0.20320900  0.86200000  1
  O  946  1  0.69660300  0.72344900  0.64692700  1
  O  960  1  0.42590100  0.56989000  0.49319500  1
  O  974  1  0.92561000  0.35323700  0.01200800  1
  O  988  1  0.17512100  0.20382900  0.64686200  1
  O  1002  1  0.67539200  0.72311600  0.86209900  1
  O  1016  1  0.67583800  0.71929900  0.14531500  1
  O  1030  1  0.17532300  0.20355600  0.35997200  1
  O  1044  1  0.69730300  0.71893400  0.35985800  1
  O  1058  1  0.19713500  0.20401700  0.14528100  1
  O  1072  1  0.44592900  0.07054700  0.51494100  1
  O  1086  1  0.94596700  0.85598900  0.99436200  1
  O  1100  1  0.92594400  0.07039900  0.99455100  1
  O  1114  1  0.42596400  0.85604400  0.51428500  1
  O  1128  1  0.97092600  0.46345300  0.07130000  1
  O  1142  1  0.47087600  0.45966000  0.43390400  1
  O  1156  1  0.22109100  0.14465300  0.75635400  1
  O  1170  1  0.72114400  0.78233800  0.75253000  1
  O  1184  1  0.90175400  0.46042100  0.93796900  1
  O  1198  1  0.40188200  0.46268400  0.56706800  1
  O  1212  1  0.65115700  0.77834300  0.25074200  1
  O  1226  1  0.15120500  0.14442900  0.25490200  1
  O  1240  1  0.47114100  0.96529500  0.57229600  1
  O  1254  1  0.97112800  0.96092900  0.93681600  1
  O  1268  1  0.72091200  0.64577100  0.25395900  1
  O  1282  1  0.22093500  0.27709700  0.25142600  1
  O  1296  1  0.40148600  0.96144100  0.44048300  1
  O  1310  1  0.90143100  0.96446200  0.06841600  1
  O  1324  1  0.15149200  0.27742400  0.75278400  1
  O  1338  1  0.65115800  0.64912300  0.75573700  1
  O  1352  1  0.81555900  0.59354100  0.11710400  1
  O  1366  1  0.31548700  0.32910700  0.38773400  1
  O  1380  1  0.06574600  0.09804100  0.88703300  1
  O  1394  1  0.56584900  0.82864100  0.62212600  1
  O  1408  1  0.55645400  0.59353600  0.38779100  1
  O  1422  1  0.05648200  0.32921400  0.11750200  1
  O  1436  1  0.30621700  0.09817600  0.62229600  1
  O  1450  1  0.80626800  0.82889800  0.88693700  1
  O  1464  1  0.05643700  0.32933000  0.89026800  1
  O  1478  1  0.55632000  0.59143100  0.61244100  1
  O  1492  1  0.80640400  0.82386400  0.12111600  1
  O  1506  1  0.30613900  0.10001200  0.38449300  1
  O  1520  1  0.31618000  0.33082400  0.61394700  1
  O  1534  1  0.81639300  0.59259200  0.89182000  1
  O  1548  1  0.56636200  0.82194900  0.38283200  1
  O  1562  1  0.06647100  0.09801500  0.11977000  1
  O  1576  1  0.91133100  0.72731200  0.03621600  1
  O  1590  1  0.41072700  0.19773400  0.47020700  1
  O  1604  1  0.16339700  0.18160800  0.01712600  1
  O  1618  1  0.66467000  0.74563700  0.49144000  1
  O  1632  1  0.46030600  0.72598100  0.46918900  1
  O  1646  1  0.96195800  0.19702200  0.03574800  1
  O  1660  1  0.20789100  0.18079100  0.49076800  1
  O  1674  1  0.70905800  0.74426900  0.01623100  1
  O  1688  1  0.96107100  0.19650400  0.97093700  1
  O  1702  1  0.45891100  0.72785500  0.53655700  1
  O  1716  1  0.41229500  0.19646100  0.53571600  1
  O  1730  1  0.91212900  0.72723100  0.97039000  1
  O  1744  1  0.66252400  0.67648400  0.51527000  1
  O  1758  1  0.16135200  0.24614900  0.99043200  1
  O  1772  1  0.71097000  0.67769700  0.99130100  1
  O  1786  1  0.21036900  0.24656200  0.51600200  1
  O  1809  1  0.27589300  0.55462500  0.07175800  1
  O  1810  1  0.22957800  0.61226600  0.09219900  1
  O  1837  1  0.77603200  0.36878000  0.43322900  1
  O  1838  1  0.72970100  0.31162600  0.41290900  1
  O  1865  1  0.52620400  0.14423200  0.84705900  1
  O  1866  1  0.47987200  0.12396300  0.90425100  1
  O  1893  1  0.02606810  0.78251300  0.66151700  1
  O  1894  1  0.97978100  0.80305600  0.60400900  1
  O  1921  1  0.80741600  0.55419700  0.43461200  1
  O  1922  1  0.85330200  0.61182000  0.41313800  1
  O  1949  1  0.30735600  0.36913000  0.07056000  1
  O  1950  1  0.35318600  0.31181700  0.09188200  1
  O  1977  1  0.55723400  0.14550300  0.66186600  1
  O  1978  1  0.60300900  0.12406200  0.60423400  1
  O  2005  1  0.05714810  0.78151300  0.84672400  1
  O  2006  1  0.10290200  0.80283200  0.90392100  1
  O  2033  1  0.30732300  0.36690800  0.93901800  1
  O  2034  1  0.35349400  0.31167700  0.91717100  1
  O  2061  1  0.80755700  0.55660200  0.56606800  1
  O  2062  1  0.85371100  0.61243400  0.58827100  1
  O  2089  1  0.05756210  0.77826500  0.16080200  1
  O  2090  1  0.10287400  0.79766800  0.10274100  1
  O  2117  1  0.55758600  0.14471700  0.34565900  1
  O  2118  1  0.60301400  0.12555900  0.40416300  1
  O  2145  1  0.77475000  0.36726000  0.56450000  1
  O  2146  1  0.72913700  0.31189300  0.58770000  1
  O  2173  1  0.27465500  0.55613000  0.94057800  1
  O  2174  1  0.22927300  0.61207300  0.91718600  1
  O  2201  1  0.02457710  0.77711200  0.34524300  1
  O  2202  1  0.97974300  0.79765400  0.40388500  1
  O  2229  1  0.52476300  0.14590500  0.16098000  1
  O  2230  1  0.47990200  0.12632300  0.10290400  1
  O  2257  1  0.77177100  0.05546500  0.57247600  1
  O  2258  1  0.72549100  0.11039300  0.59363900  1
  O  2285  1  0.27168900  0.87022000  0.93657000  1
  O  2286  1  0.22525400  0.81535100  0.91440000  1
  O  2313  1  0.02207310  0.64660400  0.34770600  1
  O  2314  1  0.97437500  0.62213500  0.39968500  1
  O  2341  1  0.52213900  0.27634700  0.15798300  1
  O  2342  1  0.47441900  0.30071900  0.10631900  1
  O  2369  1  0.31173600  0.05508400  0.93765500  1
  O  2370  1  0.35766000  0.10981000  0.91497900  1
  O  2397  1  0.81160000  0.87052300  0.57124900  1
  O  2398  1  0.85771500  0.81530100  0.59355700  1
  O  2425  1  0.06126410  0.64788800  0.15828000  1
  O  2426  1  0.10850200  0.62239800  0.10671700  1
  O  2453  1  0.56139000  0.27482500  0.34746300  1
  O  2454  1  0.60852900  0.30057600  0.39951800  1
  O  2481  1  0.81140800  0.86854000  0.44152200  1
  O  2482  1  0.85784500  0.81520700  0.41766000  1
  O  2509  1  0.31120900  0.05715800  0.06728300  1
  O  2510  1  0.35769100  0.11016500  0.09030600  1
  O  2537  1  0.56088000  0.27629400  0.65933400  1
  O  2538  1  0.60784800  0.29899500  0.60593600  1
  O  2565  1  0.06157410  0.65005900  0.84832600  1
  O  2566  1  0.10802100  0.62653200  0.90137100  1
  O  2593  1  0.27123800  0.86876200  0.06580400  1
  O  2594  1  0.22493400  0.81537700  0.08996000  1
  O  2621  1  0.77063400  0.05673300  0.44273500  1
  O  2622  1  0.72471900  0.10965700  0.41795500  1
  O  2649  1  0.52109300  0.27496400  0.84827500  1
  O  2650  1  0.47492600  0.29878100  0.90136700  1
  O  2677  1  0.02073910  0.65153000  0.65979700  1
  O  2678  1  0.97464500  0.62684100  0.60632300  1
  O  2696  1  0.30138200  0.56986300  0.01247700  1
  O  2710  1  0.80166800  0.35326600  0.49252300  1
  O  2724  1  0.55204000  0.20320900  0.86200000  1
  O  2738  1  0.05184510  0.72344900  0.64692700  1
  O  2752  1  0.78114300  0.56989000  0.49319500  1
  O  2766  1  0.28085200  0.35323700  0.01200800  1
  O  2780  1  0.53036300  0.20382900  0.64686200  1
  O  2794  1  0.03063410  0.72311600  0.86209900  1
  O  2808  1  0.03108010  0.71929900  0.14531500  1
  O  2822  1  0.53056500  0.20355600  0.35997200  1
  O  2836  1  0.05254510  0.71893400  0.35985800  1
  O  2850  1  0.55237700  0.20401700  0.14528100  1
  O  2864  1  0.80117100  0.07054700  0.51494100  1
  O  2878  1  0.30120900  0.85598900  0.99436200  1
  O  2892  1  0.28118600  0.07039900  0.99455100  1
  O  2906  1  0.78120600  0.85604400  0.51428500  1
  O  2920  1  0.32616800  0.46345300  0.07130000  1
  O  2934  1  0.82611800  0.45966000  0.43390400  1
  O  2948  1  0.57633300  0.14465300  0.75635400  1
  O  2962  1  0.07638610  0.78233800  0.75253000  1
  O  2976  1  0.25699600  0.46042100  0.93796900  1
  O  2990  1  0.75712400  0.46268400  0.56706800  1
  O  3004  1  0.00639908  0.77834300  0.25074200  1
  O  3018  1  0.50644700  0.14442900  0.25490200  1
  O  3032  1  0.82638300  0.96529500  0.57229600  1
  O  3046  1  0.32637000  0.96092900  0.93681600  1
  O  3060  1  0.07615410  0.64577100  0.25395900  1
  O  3074  1  0.57617700  0.27709700  0.25142600  1
  O  3088  1  0.75672800  0.96144100  0.44048300  1
  O  3102  1  0.25667300  0.96446200  0.06841600  1
  O  3116  1  0.50673400  0.27742400  0.75278400  1
  O  3130  1  0.00640008  0.64912300  0.75573700  1
  O  3144  1  0.17080100  0.59354100  0.11710400  1
  O  3158  1  0.67072900  0.32910700  0.38773400  1
  O  3172  1  0.42098800  0.09804100  0.88703300  1
  O  3186  1  0.92109100  0.82864100  0.62212600  1
  O  3200  1  0.91169600  0.59353600  0.38779100  1
  O  3214  1  0.41172400  0.32921400  0.11750200  1
  O  3228  1  0.66145900  0.09817600  0.62229600  1
  O  3242  1  0.16151000  0.82889800  0.88693700  1
  O  3256  1  0.41167900  0.32933000  0.89026800  1
  O  3270  1  0.91156200  0.59143100  0.61244100  1
  O  3284  1  0.16164600  0.82386400  0.12111600  1
  O  3298  1  0.66138100  0.10001200  0.38449300  1
  O  3312  1  0.67142200  0.33082400  0.61394700  1
  O  3326  1  0.17163500  0.59259200  0.89182000  1
  O  3340  1  0.92160400  0.82194900  0.38283200  1
  O  3354  1  0.42171300  0.09801500  0.11977000  1
  O  3368  1  0.26657300  0.72731200  0.03621600  1
  O  3382  1  0.76596900  0.19773400  0.47020700  1
  O  3396  1  0.51863900  0.18160800  0.01712600  1
  O  3410  1  0.01991210  0.74563700  0.49144000  1
  O  3424  1  0.81554800  0.72598100  0.46918900  1
  O  3438  1  0.31720000  0.19702200  0.03574800  1
  O  3452  1  0.56313300  0.18079100  0.49076800  1
  O  3466  1  0.06430010  0.74426900  0.01623100  1
  O  3480  1  0.31631300  0.19650400  0.97093700  1
  O  3494  1  0.81415300  0.72785500  0.53655700  1
  O  3508  1  0.76753700  0.19646100  0.53571600  1
  O  3522  1  0.26737100  0.72723100  0.97039000  1
  O  3536  1  0.01776610  0.67648400  0.51527000  1
  O  3550  1  0.51659400  0.24614900  0.99043200  1
  O  3564  1  0.06621210  0.67769700  0.99130100  1
  O  3578  1  0.56561100  0.24656200  0.51600200  1
