# generated using pymatgen
data_H9C11N4
_symmetry_space_group_name_H-M   'P 1'
_cell_length_a   35.61500000
_cell_length_b   35.88350000
_cell_length_c   56.67700000
_cell_angle_alpha   90.00000000
_cell_angle_beta   90.00000000
_cell_angle_gamma   90.00000000
_symmetry_Int_Tables_number   1
_chemical_formula_structural   H9C11N4
_chemical_formula_sum   'H576 C704 N256'
_cell_volume   72432.68754714
_cell_formula_units_Z   64
loop_
 _symmetry_equiv_pos_site_id
 _symmetry_equiv_pos_as_xyz
  1  'x, y, z'
loop_
 _atom_site_type_symbol
 _atom_site_label
 _atom_site_symmetry_multiplicity
 _atom_site_fract_x
 _atom_site_fract_y
 _atom_site_fract_z
 _atom_site_occupancy
  H  7  1  0.22201500  0.07515700  0.11132000  1
  H  16  1  0.21599300  0.15413500  0.08248800  1
  H  19  1  0.18328500  0.11466500  0.03706400  1
  H  20  1  0.20045400  0.08497000  0.01797100  1
  H  21  1  0.10244700  0.05448000  0.08423700  1
  H  22  1  0.14627200  0.04252600  0.07964700  1
  H  23  1  0.07059200  0.18714400  0.09907100  1
  H  24  1  0.10407800  0.21814100  0.09966100  1
  H  25  1  0.25675700  0.96594500  0.05105700  1
  H  26  1  0.27335700  0.96778400  0.07784000  1
  H  33  1  0.35057700  0.92579300  0.61127800  1
  H  42  1  0.35655200  0.84679800  0.58244400  1
  H  45  1  0.38959500  0.88639600  0.53700800  1
  H  46  1  0.37257700  0.91613100  0.51790800  1
  H  47  1  0.47010600  0.94642900  0.58433000  1
  H  48  1  0.42630100  0.95839200  0.57967600  1
  H  49  1  0.50188500  0.81378800  0.59927800  1
  H  50  1  0.46839000  0.78279100  0.59981800  1
  H  51  1  0.31602500  0.03508400  0.55102100  1
  H  52  1  0.29941400  0.03325700  0.57780200  1
  H  59  1  0.21543300  0.93654700  0.36242600  1
  H  68  1  0.13526500  0.92960500  0.33420600  1
  H  71  1  0.17377800  0.89527200  0.28923000  1
  H  72  1  0.20266700  0.91219600  0.26951300  1
  H  73  1  0.23536300  0.81675600  0.33705000  1
  H  74  1  0.24741500  0.85999900  0.33152800  1
  H  75  1  0.10213500  0.78625200  0.35396900  1
  H  76  1  0.07100600  0.81957100  0.35436100  1
  H  77  1  0.32341500  0.96983800  0.30050800  1
  H  78  1  0.32218500  0.98721300  0.32707600  1
  H  85  1  0.35706300  0.06443200  0.86241000  1
  H  94  1  0.43723200  0.07132100  0.83416400  1
  H  97  1  0.39882100  0.10552200  0.78920200  1
  H  98  1  0.36994000  0.08846800  0.76951100  1
  H  99  1  0.33718700  0.18423300  0.83694800  1
  H  100  1  0.32512200  0.14100500  0.83139900  1
  H  101  1  0.47040900  0.21464300  0.85399500  1
  H  102  1  0.50152800  0.18131400  0.85436900  1
  H  103  1  0.24911600  0.03117600  0.80048700  1
  H  104  1  0.25026600  0.01384000  0.82706900  1
  H  111  1  0.35204900  0.07157900  0.39545100  1
  H  120  1  0.35706100  0.15141100  0.42454300  1
  H  123  1  0.39132200  0.11192800  0.46975700  1
  H  124  1  0.37614000  0.08092300  0.48880000  1
  H  125  1  0.47167500  0.05302500  0.42197200  1
  H  126  1  0.42793300  0.04045300  0.42618700  1
  H  127  1  0.50210900  0.18623500  0.40824100  1
  H  128  1  0.46827800  0.21685500  0.40773000  1
  H  129  1  0.31102100  0.96644600  0.45807800  1
  H  130  1  0.29497200  0.96783400  0.43112700  1
  H  137  1  0.22055600  0.92940700  0.89549400  1
  H  146  1  0.21549100  0.84952400  0.92465500  1
  H  149  1  0.18111200  0.88917700  0.96981800  1
  H  150  1  0.19624500  0.92019400  0.98885600  1
  H  151  1  0.10110400  0.94815100  0.92188000  1
  H  152  1  0.14486700  0.96065000  0.92611800  1
  H  153  1  0.07039200  0.81498400  0.90829600  1
  H  154  1  0.10415000  0.78428500  0.90785300  1
  H  155  1  0.26159300  0.03457100  0.95809700  1
  H  156  1  0.27760900  0.03318900  0.93113800  1
  H  163  1  0.35492700  0.93672800  0.14445600  1
  H  172  1  0.43578300  0.93012300  0.17283200  1
  H  175  1  0.39704400  0.89458900  0.21767200  1
  H  176  1  0.36653100  0.90924700  0.23728500  1
  H  177  1  0.33631100  0.81678100  0.16929600  1
  H  178  1  0.32384700  0.86005200  0.17434800  1
  H  179  1  0.46998500  0.78679600  0.15374300  1
  H  180  1  0.50093300  0.82027300  0.15339300  1
  H  181  1  0.25058900  0.97541700  0.20858200  1
  H  182  1  0.25166400  0.99270100  0.18195700  1
  H  189  1  0.21773700  0.06424100  0.64439900  1
  H  198  1  0.13684800  0.07089100  0.67280200  1
  H  201  1  0.17550500  0.10627700  0.71761400  1
  H  202  1  0.20599400  0.09154300  0.73722500  1
  H  203  1  0.23639000  0.18419100  0.66935400  1
  H  204  1  0.24883300  0.14091100  0.67437800  1
  H  205  1  0.10272200  0.21427000  0.65379900  1
  H  206  1  0.07174300  0.18082400  0.65347800  1
  H  207  1  0.32195700  0.02543200  0.70858200  1
  H  208  1  0.32093500  0.00820400  0.68194300  1
  H  215  1  0.84548200  0.92745900  0.89680300  1
  H  224  1  0.85136700  0.84802700  0.92586000  1
  H  227  1  0.88345800  0.88675500  0.97096300  1
  H  228  1  0.86553500  0.91581300  0.99017000  1
  H  229  1  0.96462800  0.94796700  0.92364100  1
  H  230  1  0.92077000  0.95976600  0.92832000  1
  H  231  1  0.99698800  0.81477800  0.91024900  1
  H  232  1  0.96356700  0.78375800  0.91003700  1
  H  233  1  0.80894700  0.03516500  0.95769500  1
  H  234  1  0.79249600  0.03357800  0.93087500  1
  H  241  1  0.72707100  0.07358900  0.39684700  1
  H  250  1  0.72126400  0.15300900  0.42590100  1
  H  253  1  0.68889300  0.11414300  0.47104600  1
  H  254  1  0.70670900  0.08505200  0.49025000  1
  H  255  1  0.60799500  0.05308600  0.42361600  1
  H  256  1  0.65183300  0.04129100  0.42836400  1
  H  257  1  0.57570500  0.18624600  0.41002000  1
  H  258  1  0.60914000  0.21726100  0.40983500  1
  H  259  1  0.76357500  0.96580500  0.45769700  1
  H  260  1  0.78000400  0.96741100  0.43087300  1
  H  267  1  0.86226400  0.06560900  0.64747800  1
  H  276  1  0.94118000  0.07263500  0.67626400  1
  H  279  1  0.90107900  0.10560300  0.72158000  1
  H  280  1  0.87137800  0.08840800  0.74073200  1
  H  281  1  0.84030400  0.18487200  0.67410200  1
  H  282  1  0.82844700  0.14132200  0.67873200  1
  H  283  1  0.97403700  0.21701500  0.65966600  1
  H  284  1  0.00547200  0.18393200  0.65951400  1
  H  285  1  0.75194500  0.03123700  0.70747600  1
  H  286  1  0.75429000  0.01417400  0.68086700  1
  H  293  1  0.71037600  0.93535100  0.14747500  1
  H  302  1  0.63147100  0.92837000  0.17629800  1
  H  305  1  0.67150200  0.89553400  0.22159800  1
  H  306  1  0.70121100  0.91284800  0.24071500  1
  H  307  1  0.73230800  0.81608200  0.17418000  1
  H  308  1  0.74417900  0.85962000  0.17883400  1
  H  309  1  0.59858300  0.78400900  0.15962600  1
  H  310  1  0.56714900  0.81709400  0.15951000  1
  H  311  1  0.82069200  0.96969300  0.20746000  1
  H  312  1  0.81840900  0.98673100  0.18083900  1
  H  319  1  0.72551300  0.93074700  0.61323800  1
  H  328  1  0.72080400  0.85071100  0.58373600  1
  H  331  1  0.68725100  0.88993800  0.53879500  1
  H  332  1  0.70313700  0.92059500  0.51975900  1
  H  333  1  0.60639100  0.94931600  0.58658200  1
  H  334  1  0.65021800  0.96178700  0.58254800  1
  H  335  1  0.57541800  0.81552200  0.59851800  1
  H  336  1  0.60916800  0.78486400  0.59857800  1
  H  337  1  0.76886500  0.03469800  0.55041400  1
  H  338  1  0.78451900  0.03336900  0.57745300  1
  H  345  1  0.84709400  0.07026600  0.11320100  1
  H  354  1  0.85169600  0.15029000  0.08370500  1
  H  357  1  0.88553000  0.11091500  0.03872600  1
  H  358  1  0.86969600  0.08023000  0.01970300  1
  H  359  1  0.96615000  0.05173900  0.08655900  1
  H  360  1  0.92232900  0.03924000  0.08252400  1
  H  361  1  0.99706400  0.18553200  0.09850200  1
  H  362  1  0.96329800  0.21617500  0.09856000  1
  H  363  1  0.80371600  0.96625700  0.05041500  1
  H  364  1  0.78807900  0.96760600  0.07745600  1
  H  371  1  0.71243700  0.06568300  0.86251200  1
  H  380  1  0.63305400  0.07232300  0.83323900  1
  H  383  1  0.67390500  0.10646100  0.78819100  1
  H  384  1  0.70536100  0.09143500  0.76928500  1
  H  385  1  0.73340000  0.18496000  0.83654900  1
  H  386  1  0.74564500  0.14135900  0.83256300  1
  H  387  1  0.59908300  0.21680800  0.84855900  1
  H  388  1  0.56776400  0.18363800  0.84845900  1
  H  389  1  0.81953800  0.02528000  0.80063700  1
  H  390  1  0.81707500  0.00845500  0.82733700  1
  H  397  1  0.86007700  0.93535400  0.36254700  1
  H  406  1  0.93949600  0.92869100  0.33324600  1
  H  409  1  0.89873800  0.89469200  0.28823000  1
  H  410  1  0.86728200  0.90975500  0.26932800  1
  H  411  1  0.83909400  0.81608200  0.33652300  1
  H  412  1  0.82686600  0.85967900  0.33252300  1
  H  413  1  0.97340000  0.78419800  0.34860500  1
  H  414  1  0.00474000  0.81734400  0.34847500  1
  H  415  1  0.75304300  0.97577400  0.30062100  1
  H  416  1  0.75543800  0.99254700  0.32733400  1
  H  423  1  0.72749200  0.57807000  0.61042700  1
  H  432  1  0.72037700  0.65627300  0.58063200  1
  H  435  1  0.68761800  0.61553900  0.53601100  1
  H  436  1  0.70493400  0.58562800  0.51709700  1
  H  437  1  0.60799500  0.55550000  0.58461600  1
  H  438  1  0.65171800  0.54395200  0.57926000  1
  H  439  1  0.57553600  0.68783900  0.60001600  1
  H  440  1  0.60867100  0.71921900  0.59969100  1
  H  441  1  0.76219400  0.46761800  0.55117900  1
  H  442  1  0.77945600  0.47040200  0.57776000  1
  H  449  1  0.84509400  0.42297400  0.11041300  1
  H  458  1  0.85216200  0.34473800  0.08063500  1
  H  461  1  0.88521800  0.38556700  0.03598800  1
  H  462  1  0.86804500  0.41550300  0.01706300  1
  H  463  1  0.96454100  0.44550200  0.08466700  1
  H  464  1  0.92081800  0.45705900  0.07930900  1
  H  465  1  0.99698600  0.31317400  0.10007000  1
  H  466  1  0.96384200  0.28180100  0.09974400  1
  H  467  1  0.81054400  0.53346200  0.05114500  1
  H  468  1  0.79329600  0.53071400  0.07773300  1
  H  475  1  0.71076900  0.44026100  0.86098200  1
  H  484  1  0.63189500  0.43325200  0.83236000  1
  H  487  1  0.67183000  0.40051000  0.78689200  1
  H  488  1  0.70133700  0.41798800  0.76772400  1
  H  489  1  0.73295900  0.32116100  0.83453400  1
  H  490  1  0.74463400  0.36465800  0.82952300  1
  H  491  1  0.59913300  0.28888500  0.84915900  1
  H  492  1  0.56779800  0.32200000  0.84952400  1
  H  493  1  0.82083200  0.47522400  0.80097000  1
  H  494  1  0.81840100  0.49230400  0.82757200  1
  H  501  1  0.86171100  0.56073600  0.36103500  1
  H  510  1  0.94063900  0.56780400  0.33232000  1
  H  513  1  0.90078200  0.60034200  0.28694400  1
  H  514  1  0.87130500  0.58271600  0.26779600  1
  H  515  1  0.83946200  0.67979400  0.33457700  1
  H  516  1  0.82781500  0.63628900  0.32958200  1
  H  517  1  0.97329300  0.71220100  0.34907800  1
  H  518  1  0.00468000  0.67913300  0.34936400  1
  H  519  1  0.75175400  0.52575100  0.30097600  1
  H  520  1  0.75409600  0.50869000  0.32759000  1
  H  527  1  0.84642200  0.57447800  0.89626300  1
  H  536  1  0.85244500  0.65355300  0.92651100  1
  H  539  1  0.88641400  0.61269600  0.97084900  1
  H  540  1  0.87114000  0.58131400  0.98962300  1
  H  541  1  0.96576300  0.55392800  0.92151300  1
  H  542  1  0.92204800  0.54177000  0.92632400  1
  H  543  1  0.99723800  0.68702000  0.90830300  1
  H  544  1  0.96384800  0.71810400  0.90886600  1
  H  545  1  0.80526800  0.46786700  0.95780800  1
  H  546  1  0.78873600  0.47031600  0.93100900  1
  H  553  1  0.72610800  0.42644600  0.39632300  1
  H  562  1  0.72011300  0.34735700  0.42653300  1
  H  565  1  0.68597000  0.38836800  0.47093500  1
  H  566  1  0.70118600  0.41977500  0.48969900  1
  H  567  1  0.60688500  0.44708500  0.42157500  1
  H  568  1  0.65060600  0.45920800  0.42639700  1
  H  569  1  0.57532000  0.31406900  0.40818500  1
  H  570  1  0.60870500  0.28297400  0.40870200  1
  H  571  1  0.76725600  0.53312500  0.45782200  1
  H  572  1  0.78376100  0.53067000  0.43101600  1
  H  579  1  0.85955200  0.44024700  0.64569400  1
  H  588  1  0.93900700  0.43351100  0.67471100  1
  H  591  1  0.89835300  0.39921400  0.71988600  1
  H  592  1  0.86716100  0.41449400  0.73888900  1
  H  593  1  0.83854900  0.32095200  0.67148900  1
  H  594  1  0.82644500  0.36448200  0.67593500  1
  H  595  1  0.97273500  0.28928300  0.65818400  1
  H  596  1  0.00392900  0.32251800  0.65803200  1
  H  597  1  0.75315000  0.48134100  0.70785300  1
  H  598  1  0.75558700  0.49819800  0.68116000  1
  H  605  1  0.71312200  0.56074500  0.14569600  1
  H  614  1  0.63364400  0.56750300  0.17476800  1
  H  617  1  0.67422500  0.60163500  0.21989900  1
  H  618  1  0.70541200  0.58629100  0.23889200  1
  H  619  1  0.73417200  0.68001400  0.17154900  1
  H  620  1  0.74625400  0.63648400  0.17600700  1
  H  621  1  0.60000100  0.71174700  0.15820900  1
  H  622  1  0.56877200  0.67854500  0.15811400  1
  H  623  1  0.81947000  0.51957300  0.20788500  1
  H  624  1  0.81708400  0.50278500  0.18117200  1
  H  631  1  0.35008600  0.42505000  0.39721400  1
  H  640  1  0.35757700  0.34612300  0.42693700  1
  H  643  1  0.39131900  0.38614700  0.47102900  1
  H  644  1  0.37451400  0.41577300  0.49028900  1
  H  645  1  0.47003600  0.44663100  0.42148300  1
  H  646  1  0.42660200  0.45823300  0.42764100  1
  H  647  1  0.50153100  0.31417800  0.40536700  1
  H  648  1  0.46827500  0.28294600  0.40601600  1
  H  649  1  0.31735800  0.53470800  0.45749400  1
  H  650  1  0.29977600  0.53262000  0.43096300  1
  H  657  1  0.22244300  0.57598000  0.89724200  1
  H  666  1  0.21501600  0.65492400  0.92703200  1
  H  669  1  0.18100100  0.61474700  0.97108900  1
  H  670  1  0.19768600  0.58507900  0.99034300  1
  H  671  1  0.10257500  0.55442700  0.92143400  1
  H  672  1  0.14601800  0.54280300  0.92755600  1
  H  673  1  0.07106600  0.68690600  0.90546800  1
  H  674  1  0.10432500  0.71813500  0.90615000  1
  H  675  1  0.25514600  0.46626700  0.95749800  1
  H  676  1  0.27270600  0.46836000  0.93096100  1
  H  683  1  0.35779400  0.56301300  0.14627200  1
  H  692  1  0.43811100  0.56978800  0.17604200  1
  H  695  1  0.39921700  0.60263900  0.21992000  1
  H  696  1  0.37053800  0.58480600  0.23943600  1
  H  697  1  0.33696000  0.68151300  0.17094000  1
  H  698  1  0.32528200  0.63828500  0.17682700  1
  H  699  1  0.47078000  0.71294300  0.15551400  1
  H  700  1  0.50216800  0.67984700  0.15620700  1
  H  701  1  0.25006800  0.52735100  0.20782700  1
  H  702  1  0.25148300  0.51059900  0.18111000  1
  H  709  1  0.21484000  0.43801400  0.64627400  1
  H  718  1  0.13454300  0.43123100  0.67605000  1
  H  721  1  0.17337100  0.39850900  0.71993000  1
  H  722  1  0.20205400  0.41645300  0.73941400  1
  H  723  1  0.23569400  0.31948900  0.67100400  1
  H  724  1  0.24736700  0.36270700  0.67691600  1
  H  725  1  0.10188800  0.28808500  0.65547400  1
  H  726  1  0.07049800  0.32117500  0.65618000  1
  H  727  1  0.32256400  0.47362700  0.70781800  1
  H  728  1  0.32120200  0.49037300  0.68109600  1
  H  735  1  0.22100200  0.42867600  0.11280500  1
  H  744  1  0.21480900  0.34902600  0.08261500  1
  H  747  1  0.17969500  0.38921200  0.03877800  1
  H  748  1  0.19451300  0.42033200  0.01969400  1
  H  749  1  0.10095900  0.44789100  0.08862000  1
  H  750  1  0.14437100  0.46029500  0.08305500  1
  H  751  1  0.07116600  0.31488300  0.10361700  1
  H  752  1  0.10479800  0.28406900  0.10282900  1
  H  753  1  0.26019100  0.53466900  0.05034000  1
  H  754  1  0.27706400  0.53287400  0.07708300  1
  H  761  1  0.35156900  0.57240800  0.61275800  1
  H  770  1  0.35782700  0.65206000  0.58256100  1
  H  773  1  0.39308800  0.61165400  0.53870200  1
  H  774  1  0.37830500  0.58050900  0.51963400  1
  H  775  1  0.47144200  0.55295000  0.58868100  1
  H  776  1  0.42802800  0.54063800  0.58304400  1
  H  777  1  0.50146600  0.68587500  0.60380600  1
  H  778  1  0.46788500  0.71675000  0.60298500  1
  H  779  1  0.31226500  0.46637000  0.55035000  1
  H  780  1  0.29540700  0.46820900  0.57709500  1
  H  787  1  0.21693500  0.56276800  0.36367000  1
  H  796  1  0.13610900  0.56930300  0.33356400  1
  H  799  1  0.17569100  0.60356400  0.28989400  1
  H  800  1  0.20616500  0.58804100  0.27052800  1
  H  801  1  0.23666600  0.68145800  0.33949700  1
  H  802  1  0.24874300  0.63820400  0.33403300  1
  H  803  1  0.10257200  0.71231300  0.35394800  1
  H  804  1  0.07130000  0.67913100  0.35305100  1
  H  805  1  0.32116300  0.52133100  0.30014300  1
  H  806  1  0.31981500  0.50485600  0.32696700  1
  H  813  1  0.35554400  0.43817000  0.86371500  1
  H  822  1  0.43639800  0.43165500  0.83362700  1
  H  825  1  0.39693700  0.39753100  0.78994100  1
  H  826  1  0.36647800  0.41311200  0.77057900  1
  H  827  1  0.33585300  0.31946400  0.83941300  1
  H  828  1  0.32377400  0.36271800  0.83395700  1
  H  829  1  0.46991500  0.28865300  0.85403400  1
  H  830  1  0.50118800  0.32183000  0.85314000  1
  H  831  1  0.25141700  0.47968800  0.80013400  1
  H  832  1  0.25269300  0.49609700  0.82697400  1
  H  839  1  0.18358500  0.21980600  0.12602200  1
  H  841  1  0.15358200  0.26649000  0.03124000  1
  H  842  1  0.17923700  0.30651900  0.03973900  1
  H  843  1  0.13072900  0.30275700  0.04673100  1
  H  850  1  0.38877800  0.78117700  0.62603900  1
  H  852  1  0.41945300  0.73452400  0.53133200  1
  H  853  1  0.39385100  0.69442700  0.53976700  1
  H  854  1  0.44230900  0.69830900  0.54686900  1
  H  861  1  0.06657300  0.89501000  0.37845900  1
  H  863  1  0.02644800  0.87251500  0.28159900  1
  H  864  1  0.98528600  0.89686300  0.28984900  1
  H  865  1  0.98914900  0.84823600  0.29531000  1
  H  872  1  0.50597800  0.10602000  0.87845000  1
  H  874  1  0.54606600  0.12839200  0.78158500  1
  H  875  1  0.58726700  0.10411800  0.78984100  1
  H  876  1  0.58331400  0.15273900  0.79530000  1
  H  883  1  0.38889600  0.21886000  0.38171400  1
  H  885  1  0.41963600  0.26230600  0.47699600  1
  H  886  1  0.39411800  0.30274100  0.46912500  1
  H  887  1  0.44254700  0.29897300  0.46191900  1
  H  894  1  0.18361800  0.78216100  0.88188300  1
  H  896  1  0.15292600  0.73862000  0.97719500  1
  H  897  1  0.17857900  0.69829000  0.96928200  1
  H  898  1  0.13012200  0.70189000  0.96211500  1
  H  905  1  0.50607700  0.89597100  0.12943800  1
  H  907  1  0.54294300  0.87123300  0.22656300  1
  H  908  1  0.58462800  0.89528300  0.21903400  1
  H  909  1  0.58038000  0.84682900  0.21308800  1
  H  916  1  0.06662500  0.10502300  0.62947200  1
  H  918  1  0.02965000  0.12980600  0.72657000  1
  H  919  1  0.98796700  0.10575300  0.71903800  1
  H  920  1  0.99222100  0.15420300  0.71308100  1
  H  927  1  0.88667500  0.78150100  0.88239000  1
  H  929  1  0.90928100  0.73715700  0.97845100  1
  H  930  1  0.88444900  0.69685500  0.96951000  1
  H  931  1  0.93344200  0.70063600  0.96401200  1
  H  938  1  0.68610200  0.21947300  0.38233700  1
  H  940  1  0.66300000  0.26377300  0.47836500  1
  H  941  1  0.68778100  0.30413400  0.46947800  1
  H  942  1  0.63882200  0.30025200  0.46389900  1
  H  949  1  0.68618400  0.78267900  0.62623300  1
  H  951  1  0.66263500  0.74071600  0.52982700  1
  H  952  1  0.68750300  0.70017100  0.53827100  1
  H  953  1  0.63856900  0.70386900  0.54399700  1
  H  960  1  0.88641700  0.21835300  0.12622200  1
  H  962  1  0.90984200  0.26034900  0.02980800  1
  H  963  1  0.88502400  0.30091800  0.03827000  1
  H  964  1  0.93395600  0.29715300  0.04399100  1
  H  971  1  0.56650100  0.40051500  0.87645200  1
  H  973  1  0.51860800  0.37116800  0.78180000  1
  H  974  1  0.47820100  0.39630700  0.79053400  1
  H  975  1  0.48237300  0.34813500  0.79736900  1
  H  982  1  0.00599700  0.60057100  0.37633800  1
  H  984  1  0.05402800  0.62975100  0.28166800  1
  H  985  1  0.09432800  0.60448900  0.29045600  1
  H  986  1  0.09031900  0.65269500  0.29723900  1
  H  993  1  0.00628000  0.40061300  0.63148500  1
  H  995  1  0.05043000  0.37091700  0.72682200  1
  H  996  1  0.09136100  0.39569700  0.71865500  1
  H  997  1  0.08699100  0.34757200  0.71174200  1
  H  1004  1  0.56644700  0.60035300  0.13156800  1
  H  1006  1  0.52216500  0.63013300  0.22686100  1
  H  1007  1  0.48123300  0.60535600  0.21869200  1
  H  1008  1  0.48562500  0.65347500  0.21176000  1
  H  1015  1  0.00399600  0.11005900  0.12700200  1
  H  1017  1  0.04673700  0.13072700  0.03034600  1
  H  1018  1  0.08732900  0.10614700  0.03939000  1
  H  1019  1  0.08401600  0.15501800  0.04409400  1
  H  1026  1  0.56851700  0.89092700  0.62709900  1
  H  1028  1  0.52584900  0.87016000  0.53044600  1
  H  1029  1  0.48520600  0.89468100  0.53946600  1
  H  1030  1  0.48860100  0.84582000  0.54419400  1
  H  1037  1  0.17984900  0.71915500  0.38002000  1
  H  1039  1  0.15528500  0.76211600  0.28381500  1
  H  1040  1  0.18100400  0.80205300  0.29241500  1
  H  1041  1  0.13195600  0.79942800  0.29799400  1
  H  1048  1  0.39269200  0.28173100  0.88003400  1
  H  1050  1  0.41736700  0.23887300  0.78383300  1
  H  1051  1  0.39165800  0.19891000  0.79239900  1
  H  1052  1  0.44069100  0.20156400  0.79801800  1
  H  1059  1  0.57096800  0.11111300  0.38138600  1
  H  1061  1  0.52440000  0.12944300  0.47752300  1
  H  1062  1  0.48465300  0.10419000  0.46776600  1
  H  1063  1  0.48711300  0.15319200  0.46341200  1
  H  1070  1  0.00165800  0.88991800  0.88146100  1
  H  1072  1  0.04834000  0.87195200  0.97762000  1
  H  1073  1  0.08801000  0.89725600  0.96779500  1
  H  1074  1  0.08566400  0.84823000  0.96352800  1
  H  1081  1  0.39404200  0.71784800  0.12872700  1
  H  1083  1  0.41573800  0.76497200  0.22442400  1
  H  1084  1  0.38964800  0.80416600  0.21494100  1
  H  1085  1  0.43886100  0.80205100  0.20987000  1
  H  1092  1  0.17867300  0.28314900  0.62873600  1
  H  1094  1  0.15687800  0.23608200  0.72442100  1
  H  1095  1  0.18298200  0.19687900  0.71496700  1
  H  1096  1  0.13377700  0.19899200  0.70986600  1
  H  1103  1  0.89615700  0.28230500  0.63119100  1
  H  1105  1  0.89498600  0.23117700  0.72702800  1
  H  1106  1  0.91582300  0.19050700  0.71543100  1
  H  1107  1  0.94384500  0.23026100  0.72088500  1
  H  1114  1  0.67654200  0.71865300  0.13120200  1
  H  1116  1  0.67764500  0.76986000  0.22700700  1
  H  1117  1  0.65674900  0.81050000  0.21541200  1
  H  1118  1  0.62878600  0.77070500  0.22086200  1
  H  1125  1  0.67491000  0.28375100  0.87672800  1
  H  1127  1  0.67991400  0.22922300  0.78171900  1
  H  1128  1  0.65948700  0.18859600  0.79364600  1
  H  1129  1  0.63089500  0.22760200  0.78726600  1
  H  1136  1  0.89764300  0.71729300  0.37676100  1
  H  1138  1  0.89252700  0.77183300  0.28175600  1
  H  1139  1  0.91299600  0.81243700  0.29368700  1
  H  1140  1  0.94154500  0.77340200  0.28730500  1
  H  1147  1  0.51064800  0.60948300  0.62840300  1
  H  1149  1  0.55951800  0.61136700  0.53203800  1
  H  1150  1  0.60086800  0.63159300  0.54341400  1
  H  1151  1  0.56070300  0.65964300  0.53880800  1
  H  1158  1  0.06192700  0.39140500  0.12833500  1
  H  1160  1  0.01294300  0.38968900  0.03200500  1
  H  1161  1  0.97157200  0.36950400  0.04338800  1
  H  1162  1  0.01166800  0.34139100  0.03870300  1
  H  1169  1  0.06413500  0.61133900  0.88017900  1
  H  1171  1  0.01194500  0.60867800  0.97583000  1
  H  1172  1  0.97050000  0.62827700  0.96416000  1
  H  1173  1  0.00975200  0.65714600  0.96974400  1
  H  1180  1  0.50850500  0.38987300  0.38016600  1
  H  1182  1  0.56054300  0.39216900  0.47586000  1
  H  1183  1  0.60200800  0.37261900  0.46418600  1
  H  1184  1  0.56274100  0.34372600  0.46968400  1
  H  1191  1  0.28752200  0.01042100  0.02118600  1
  H  1193  1  0.13403700  0.01385300  0.99194500  1
  H  1194  1  0.14428200  0.97092700  0.97824100  1
  H  1195  1  0.15597400  0.01344200  0.96397100  1
  H  1202  1  0.28517200  0.99056900  0.52117100  1
  H  1204  1  0.43865000  0.98724700  0.49191200  1
  H  1205  1  0.42837300  0.03017300  0.47821900  1
  H  1206  1  0.41671500  0.98765900  0.46393800  1
  H  1213  1  0.27726400  0.00014000  0.27145200  1
  H  1215  1  0.27247600  0.84815500  0.24166200  1
  H  1216  1  0.31511500  0.85834400  0.22723700  1
  H  1217  1  0.27170300  0.87026600  0.21379900  1
  H  1224  1  0.29521300  0.00075500  0.77144300  1
  H  1226  1  0.30015800  0.15271900  0.74160900  1
  H  1227  1  0.25750600  0.14255900  0.72719100  1
  H  1228  1  0.30090700  0.13058900  0.71375300  1
  H  1235  1  0.77859700  0.99049600  0.98728200  1
  H  1237  1  0.93199000  0.98629400  0.01662400  1
  H  1238  1  0.92193300  0.02914500  0.03047100  1
  H  1239  1  0.91000300  0.98656400  0.04458100  1
  H  1246  1  0.79395900  0.01050200  0.48730700  1
  H  1248  1  0.64056000  0.01456300  0.51664200  1
  H  1249  1  0.65064800  0.97169700  0.53045800  1
  H  1250  1  0.66252800  0.01426500  0.54460400  1
  H  1257  1  0.79664000  0.00079600  0.73726900  1
  H  1259  1  0.79992500  0.15278700  0.76715400  1
  H  1260  1  0.75640700  0.14267400  0.78052600  1
  H  1261  1  0.79894500  0.13070300  0.79502300  1
  H  1268  1  0.77599700  0.00023800  0.23726400  1
  H  1270  1  0.77268700  0.84825600  0.26715800  1
  H  1271  1  0.81618800  0.85836900  0.28055100  1
  H  1272  1  0.77363300  0.87034600  0.29502300  1
  H  1279  1  0.79284700  0.51135700  0.52093800  1
  H  1281  1  0.63940800  0.51377900  0.49160500  1
  H  1282  1  0.64954700  0.47031100  0.47857500  1
  H  1283  1  0.66140800  0.51222900  0.46366900  1
  H  1290  1  0.77979900  0.48966500  0.02094300  1
  H  1292  1  0.93321500  0.48730200  0.99156300  1
  H  1293  1  0.92304200  0.53075600  0.97852600  1
  H  1294  1  0.91120400  0.48882000  0.96362900  1
  H  1301  1  0.77631700  0.50548300  0.77115900  1
  H  1303  1  0.77227100  0.35358600  0.74117500  1
  H  1304  1  0.81576400  0.36349500  0.72771500  1
  H  1305  1  0.77321200  0.37573500  0.71332800  1
  H  1312  1  0.79624700  0.49542200  0.27118400  1
  H  1314  1  0.80037400  0.64731700  0.24119700  1
  H  1315  1  0.75687900  0.63742300  0.22773400  1
  H  1316  1  0.79943100  0.62516700  0.21334900  1
  H  1323  1  0.28637100  0.49015800  0.48730900  1
  H  1325  1  0.43973900  0.48669400  0.51674400  1
  H  1326  1  0.42956700  0.52971900  0.53034700  1
  H  1327  1  0.41762800  0.48731800  0.54466400  1
  H  1334  1  0.28613500  0.51087000  0.98733700  1
  H  1336  1  0.13273900  0.51413600  0.01672300  1
  H  1337  1  0.14295900  0.47111000  0.03031000  1
  H  1338  1  0.15481100  0.51351100  0.04465400  1
  H  1345  1  0.29565700  0.49731700  0.23699900  1
  H  1347  1  0.30073300  0.64917000  0.26700200  1
  H  1348  1  0.25782700  0.63919600  0.28116700  1
  H  1349  1  0.30097200  0.62698400  0.29484400  1
  H  1356  1  0.27699200  0.50372100  0.73701500  1
  H  1358  1  0.27186200  0.35185500  0.76698100  1
  H  1359  1  0.31475300  0.36180900  0.78117200  1
  H  1360  1  0.27159000  0.37403000  0.79482700  1
  H  1367  1  0.24692600  0.94413000  0.14461800  1
  H  1369  1  0.34717400  0.06245900  0.11858100  1
  H  1370  1  0.30456900  0.08481100  0.11098300  1
  H  1371  1  0.32661000  0.05406800  0.09065000  1
  H  1378  1  0.32575100  0.05680200  0.64461900  1
  H  1380  1  0.22548300  0.93853100  0.61850800  1
  H  1381  1  0.26808400  0.91617800  0.61090600  1
  H  1382  1  0.24605700  0.94694700  0.59058300  1
  H  1389  1  0.34697500  0.96466600  0.39460400  1
  H  1391  1  0.22457800  0.06012500  0.36835000  1
  H  1392  1  0.20344100  0.01704500  0.36099100  1
  H  1393  1  0.23346300  0.03975200  0.34046100  1
  H  1400  1  0.22561300  0.03636200  0.89465700  1
  H  1402  1  0.34788500  0.94082700  0.86828000  1
  H  1403  1  0.36902800  0.98389700  0.86090500  1
  H  1404  1  0.33894700  0.96120700  0.84039900  1
  H  1411  1  0.81990600  0.05870400  0.86440500  1
  H  1413  1  0.72070000  0.93847500  0.88851500  1
  H  1414  1  0.76344600  0.91666900  0.89643400  1
  H  1415  1  0.74031800  0.94665700  0.91674000  1
  H  1422  1  0.75256300  0.94233800  0.36441600  1
  H  1424  1  0.85185000  0.06248400  0.38855600  1
  H  1425  1  0.80912100  0.08432400  0.39646800  1
  H  1426  1  0.83220900  0.05430800  0.41677600  1
  H  1433  1  0.73178000  0.03772600  0.61344800  1
  H  1435  1  0.85232700  0.94113700  0.64142900  1
  H  1436  1  0.87373700  0.98405300  0.64887500  1
  H  1437  1  0.84283400  0.96189000  0.66912700  1
  H  1444  1  0.84086300  0.96324700  0.11341800  1
  H  1446  1  0.72038300  0.05985800  0.14148300  1
  H  1447  1  0.69895600  0.01694200  0.14891100  1
  H  1448  1  0.72988700  0.03906000  0.16916500  1
  H  1455  1  0.75202100  0.44764000  0.64440100  1
  H  1457  1  0.85206100  0.56638500  0.61870200  1
  H  1458  1  0.80945200  0.58827000  0.61058800  1
  H  1459  1  0.83225400  0.55748400  0.59061700  1
  H  1466  1  0.82068100  0.55335100  0.14442800  1
  H  1468  1  0.72059300  0.43467900  0.11867000  1
  H  1469  1  0.76319100  0.41279400  0.11053200  1
  H  1470  1  0.74038300  0.44361900  0.09058600  1
  H  1477  1  0.84111900  0.46746000  0.89490600  1
  H  1479  1  0.72018300  0.56433400  0.86796600  1
  H  1480  1  0.69896200  0.52155400  0.86001000  1
  H  1481  1  0.72983400  0.54440300  0.84004800  1
  H  1488  1  0.73138100  0.53349800  0.39494500  1
  H  1490  1  0.85229100  0.43662100  0.36796400  1
  H  1491  1  0.87351200  0.47940700  0.36001900  1
  H  1492  1  0.84263800  0.45656900  0.34005300  1
  H  1499  1  0.32455700  0.55547200  0.36370800  1
  H  1501  1  0.22536200  0.43674400  0.39064000  1
  H  1502  1  0.26821500  0.41486700  0.39823700  1
  H  1503  1  0.24600700  0.44562500  0.41848700  1
  H  1510  1  0.24789000  0.44551100  0.86372900  1
  H  1512  1  0.34716300  0.56417000  0.89066600  1
  H  1513  1  0.30432700  0.58609100  0.89824300  1
  H  1514  1  0.32648600  0.55532200  0.91850800  1
  H  1521  1  0.22618200  0.53556600  0.11406300  1
  H  1523  1  0.34856100  0.43921500  0.13906300  1
  H  1524  1  0.36984700  0.48206800  0.14677900  1
  H  1525  1  0.33988200  0.45895700  0.16716000  1
  H  1532  1  0.34641600  0.46550300  0.61402100  1
  H  1534  1  0.22409700  0.56184800  0.63915000  1
  H  1535  1  0.20281200  0.51898700  0.64685100  1
  H  1536  1  0.23281400  0.54206200  0.66722800  1
  C  1  1  0.20545400  0.08290900  0.07595000  1
  C  2  1  0.22488200  0.06527800  0.09441100  1
  C  3  1  0.24608200  0.03287500  0.09029600  1
  C  4  1  0.24596500  0.01576200  0.06763700  1
  C  5  1  0.22871900  0.03528000  0.04841400  1
  C  6  1  0.20926700  0.06968600  0.05239600  1
  C  9  1  0.17748700  0.10935900  0.08241700  1
  C  10  1  0.13900900  0.09890100  0.08462000  1
  C  11  1  0.11197100  0.12728800  0.08931400  1
  C  12  1  0.12305400  0.16532200  0.09227400  1
  C  13  1  0.16178500  0.17479600  0.08994400  1
  C  14  1  0.18841000  0.14689200  0.08499300  1
  C  27  1  0.36711500  0.91801200  0.57590000  1
  C  28  1  0.34769100  0.93564700  0.59436400  1
  C  29  1  0.32659000  0.96811300  0.59025000  1
  C  30  1  0.32675000  0.98524900  0.56759900  1
  C  31  1  0.34398800  0.96572200  0.54837600  1
  C  32  1  0.36340600  0.93129900  0.55235600  1
  C  35  1  0.39507000  0.89156200  0.58239700  1
  C  36  1  0.43354300  0.90201600  0.58464300  1
  C  37  1  0.46055700  0.87362400  0.58938400  1
  C  38  1  0.44946600  0.83559000  0.59234100  1
  C  39  1  0.41074000  0.82612800  0.58994100  1
  C  40  1  0.38413100  0.85403500  0.58497100  1
  C  53  1  0.20683200  0.91877300  0.32738800  1
  C  54  1  0.22488600  0.93889300  0.34537100  1
  C  55  1  0.25711500  0.96021800  0.34058800  1
  C  56  1  0.27373200  0.95941800  0.31775800  1
  C  57  1  0.25362000  0.94160800  0.29896800  1
  C  58  1  0.21932100  0.92201900  0.30362400  1
  C  61  1  0.18030900  0.89132800  0.33456400  1
  C  62  1  0.19076600  0.85319900  0.33726900  1
  C  63  1  0.16219900  0.82667200  0.34270700  1
  C  64  1  0.12402100  0.83793900  0.34597600  1
  C  65  1  0.11453800  0.87628500  0.34302600  1
  C  66  1  0.14257100  0.90236100  0.33722800  1
  C  79  1  0.36565500  0.08218700  0.82737100  1
  C  80  1  0.34759600  0.06209100  0.84535900  1
  C  81  1  0.31536200  0.04078100  0.84057400  1
  C  82  1  0.29877300  0.04152500  0.81773500  1
  C  83  1  0.31891700  0.05929700  0.79894100  1
  C  84  1  0.35321400  0.07889400  0.80359700  1
  C  87  1  0.39220300  0.10962000  0.83452900  1
  C  88  1  0.38176100  0.14774800  0.83723500  1
  C  89  1  0.41033300  0.17425200  0.84270000  1
  C  90  1  0.44851100  0.16297700  0.84596400  1
  C  91  1  0.45797900  0.12463200  0.84299400  1
  C  92  1  0.42993700  0.09856900  0.83718800  1
  C  105  1  0.36842400  0.08024400  0.43076000  1
  C  106  1  0.34923800  0.06196800  0.41242500  1
  C  107  1  0.32839900  0.02934700  0.41674700  1
  C  108  1  0.32782300  0.01315400  0.43968600  1
  C  109  1  0.34661800  0.03232100  0.45842400  1
  C  110  1  0.36541400  0.06695200  0.45432900  1
  C  113  1  0.39600800  0.10701400  0.42417600  1
  C  114  1  0.43461800  0.09703200  0.42197400  1
  C  115  1  0.46137900  0.12581500  0.41765300  1
  C  116  1  0.44988100  0.16375900  0.41488800  1
  C  117  1  0.41104100  0.17276800  0.41722000  1
  C  118  1  0.38470100  0.14449100  0.42193100  1
  C  131  1  0.20427000  0.92071800  0.93082000  1
  C  132  1  0.22343200  0.93898500  0.91247100  1
  C  133  1  0.24420000  0.97165800  0.91677600  1
  C  134  1  0.24479000  0.98785700  0.93971300  1
  C  135  1  0.22602300  0.96869000  0.95846100  1
  C  136  1  0.20723000  0.93405800  0.95437800  1
  C  139  1  0.17664300  0.89400600  0.92421600  1
  C  140  1  0.13805800  0.90407200  0.92198400  1
  C  141  1  0.11123800  0.87533500  0.91768100  1
  C  142  1  0.12265500  0.83735600  0.91496500  1
  C  143  1  0.16147500  0.82827400  0.91733000  1
  C  144  1  0.18787400  0.85650200  0.92200900  1
  C  157  1  0.36420900  0.91887300  0.17938800  1
  C  158  1  0.34563000  0.93890200  0.16155200  1
  C  159  1  0.31312100  0.95979700  0.16651000  1
  C  160  1  0.29724600  0.95942100  0.18957200  1
  C  161  1  0.31681100  0.93985500  0.20783900  1
  C  162  1  0.35145300  0.92110200  0.20312500  1
  C  165  1  0.39090000  0.89167100  0.17209100  1
  C  166  1  0.38070500  0.85345800  0.16945100  1
  C  167  1  0.40953600  0.82700100  0.16446100  1
  C  168  1  0.44770200  0.83843800  0.16140500  1
  C  169  1  0.45693200  0.87685600  0.16427300  1
  C  170  1  0.42865100  0.90285400  0.16974200  1
  C  183  1  0.20844400  0.08208900  0.67932800  1
  C  184  1  0.22702800  0.06206600  0.66149600  1
  C  185  1  0.25952400  0.04115800  0.66647000  1
  C  186  1  0.27534700  0.04148100  0.68954600  1
  C  187  1  0.25575800  0.06103800  0.70780700  1
  C  188  1  0.22113500  0.07982200  0.70307700  1
  C  191  1  0.18176100  0.10931100  0.67204300  1
  C  192  1  0.19198000  0.14752000  0.66942500  1
  C  193  1  0.16316900  0.17400200  0.66445300  1
  C  194  1  0.12498300  0.16260400  0.66142500  1
  C  195  1  0.11572800  0.12418700  0.66428000  1
  C  196  1  0.14399700  0.09816000  0.66972000  1
  C  209  1  0.86171700  0.91920500  0.93218400  1
  C  210  1  0.84231500  0.93698400  0.91377100  1
  C  211  1  0.82062200  0.96901000  0.91805800  1
  C  212  1  0.82031800  0.98571100  0.94083500  1
  C  213  1  0.83755500  0.96598900  0.95997300  1
  C  214  1  0.85737300  0.93184000  0.95582300  1
  C  217  1  0.88977800  0.89287500  0.92569500  1
  C  218  1  0.92821100  0.90342600  0.92330700  1
  C  219  1  0.95528400  0.87508700  0.91855100  1
  C  220  1  0.94435600  0.83688800  0.91622300  1
  C  221  1  0.90563400  0.82739400  0.91857700  1
  C  222  1  0.87893400  0.85530100  0.92330700  1
  C  235  1  0.71089800  0.08185000  0.43224200  1
  C  236  1  0.73028300  0.06408200  0.41381700  1
  C  237  1  0.75190000  0.03200000  0.41808500  1
  C  238  1  0.75220400  0.01527600  0.44085400  1
  C  239  1  0.73498100  0.03498700  0.46000300  1
  C  240  1  0.71518300  0.06914700  0.45586900  1
  C  243  1  0.68283700  0.10817300  0.42574100  1
  C  244  1  0.64440900  0.09762300  0.42331800  1
  C  245  1  0.61735900  0.12596200  0.41850100  1
  C  246  1  0.62829800  0.16415100  0.41614400  1
  C  247  1  0.66701500  0.17363800  0.41856500  1
  C  248  1  0.69370000  0.14573700  0.42333400  1
  C  261  1  0.86947200  0.08281100  0.68275800  1
  C  262  1  0.85220900  0.06292000  0.66437300  1
  C  263  1  0.81987700  0.04144000  0.66855000  1
  C  264  1  0.80234300  0.04186300  0.69110700  1
  C  265  1  0.82168600  0.05941800  0.71029900  1
  C  266  1  0.85612100  0.07911400  0.70630800  1
  C  269  1  0.89592400  0.11067600  0.67620200  1
  C  270  1  0.88521800  0.14880000  0.67388300  1
  C  271  1  0.91374300  0.17573100  0.66920400  1
  C  272  1  0.95213700  0.16489900  0.66639200  1
  C  273  1  0.96180400  0.12652000  0.66885900  1
  C  274  1  0.93377900  0.09997700  0.67372100  1
  C  287  1  0.70319600  0.91816800  0.18275800  1
  C  288  1  0.72045900  0.93803200  0.16436500  1
  C  289  1  0.75280500  0.95948800  0.16853200  1
  C  290  1  0.77031400  0.95912800  0.19109700  1
  C  291  1  0.75095100  0.94160800  0.21029700  1
  C  292  1  0.71651400  0.92190500  0.20631100  1
  C  295  1  0.67671600  0.89031400  0.17622500  1
  C  296  1  0.68741100  0.85218800  0.17390100  1
  C  297  1  0.65888000  0.82527600  0.16920000  1
  C  298  1  0.62048700  0.83611100  0.16639700  1
  C  299  1  0.61083300  0.87448800  0.16888800  1
  C  300  1  0.63886100  0.90102300  0.17375600  1
  C  313  1  0.70963700  0.92187200  0.57786200  1
  C  314  1  0.72868800  0.94015800  0.59624700  1
  C  315  1  0.74999100  0.97248200  0.59190800  1
  C  316  1  0.75113900  0.98842600  0.56891100  1
  C  317  1  0.73237800  0.96928000  0.55016000  1
  C  318  1  0.71322300  0.93485200  0.55425800  1
  C  321  1  0.68192400  0.89516000  0.58431500  1
  C  322  1  0.64332200  0.90519800  0.58656600  1
  C  323  1  0.61648800  0.87640800  0.59072800  1
  C  324  1  0.62783500  0.83830100  0.59280500  1
  C  325  1  0.66666667  0.82931100  0.59058300  1
  C  326  1  0.69315000  0.85763300  0.58629800  1
  C  339  1  0.86289000  0.07914300  0.07780500  1
  C  340  1  0.84386500  0.06087100  0.09620800  1
  C  341  1  0.82263200  0.02849600  0.09189100  1
  C  342  1  0.82146700  0.01253500  0.06889800  1
  C  343  1  0.84021200  0.03166600  0.05013600  1
  C  344  1  0.85936400  0.06610100  0.05421700  1
  C  347  1  0.89060100  0.10585900  0.08426900  1
  C  348  1  0.92920200  0.09583500  0.08651500  1
  C  349  1  0.95602500  0.12463600  0.09067700  1
  C  350  1  0.94466200  0.16273800  0.09275900  1
  C  351  1  0.90579600  0.17171500  0.09053400  1
  C  352  1  0.87935500  0.14337800  0.08626400  1
  C  365  1  0.70485000  0.08286100  0.82727200  1
  C  366  1  0.72246300  0.06309300  0.84560400  1
  C  367  1  0.75507300  0.04196000  0.84138000  1
  C  368  1  0.77205500  0.04183400  0.81863400  1
  C  369  1  0.75347800  0.06119900  0.79989200  1
  C  370  1  0.71869500  0.08012900  0.80380400  1
  C  373  1  0.67817600  0.11051700  0.83383000  1
  C  374  1  0.68864000  0.14871800  0.83612000  1
  C  375  1  0.65983500  0.17561600  0.84011800  1
  C  376  1  0.62140500  0.16466300  0.84249200  1
  C  377  1  0.61199300  0.12619800  0.84017300  1
  C  378  1  0.64027900  0.09970200  0.83581700  1
  C  391  1  0.86767800  0.91817900  0.32731400  1
  C  392  1  0.85004200  0.93792900  0.34564100  1
  C  393  1  0.81742100  0.95903100  0.34140800  1
  C  394  1  0.80048700  0.95919500  0.31864600  1
  C  395  1  0.81909400  0.93984600  0.29991000  1
  C  396  1  0.85388300  0.92092100  0.30383200  1
  C  399  1  0.89435200  0.89051400  0.33386000  1
  C  400  1  0.88387000  0.85232100  0.33615600  1
  C  401  1  0.91266400  0.82541800  0.34016400  1
  C  402  1  0.95110600  0.83634800  0.34251600  1
  C  403  1  0.96053500  0.87480500  0.34018200  1
  C  404  1  0.93226000  0.90131600  0.33582800  1
  C  417  1  0.71051000  0.58483900  0.57505700  1
  C  418  1  0.73034500  0.56787900  0.59358800  1
  C  419  1  0.75180200  0.53559400  0.58968000  1
  C  420  1  0.75154900  0.51791200  0.56720700  1
  C  421  1  0.73400100  0.53686800  0.54786600  1
  C  422  1  0.71423100  0.57116500  0.55160600  1
  C  425  1  0.68237900  0.61109900  0.58147600  1
  C  426  1  0.64412800  0.60025300  0.58435200  1
  C  427  1  0.61701900  0.62840800  0.58941900  1
  C  428  1  0.62781200  0.66657300  0.59207400  1
  C  429  1  0.66626800  0.67644400  0.58884500  1
  C  430  1  0.69299000  0.64876800  0.58362800  1
  C  443  1  0.86203400  0.41615200  0.07503200  1
  C  444  1  0.84220800  0.43312400  0.09356600  1
  C  445  1  0.82085200  0.46547000  0.08965200  1
  C  446  1  0.82113500  0.48316300  0.06718300  1
  C  447  1  0.83866700  0.46418500  0.04784600  1
  C  448  1  0.85840300  0.42987400  0.05159100  1
  C  451  1  0.89016300  0.38990600  0.08148300  1
  C  452  1  0.92841300  0.40075200  0.08436200  1
  C  453  1  0.95552300  0.37259200  0.08942600  1
  C  454  1  0.94472400  0.33442900  0.09208600  1
  C  455  1  0.90626800  0.32456700  0.08884800  1
  C  456  1  0.87954600  0.35224500  0.08364000  1
  C  469  1  0.70354200  0.42314700  0.82569300  1
  C  470  1  0.72075100  0.44307800  0.84407600  1
  C  471  1  0.75294500  0.46474500  0.83988600  1
  C  472  1  0.77045700  0.46443600  0.81732300  1
  C  473  1  0.75114200  0.44685700  0.79812800  1
  C  474  1  0.71678600  0.42702600  0.80213700  1
  C  477  1  0.67716200  0.39521800  0.83227200  1
  C  478  1  0.68795500  0.35713600  0.83478300  1
  C  479  1  0.65956000  0.33025500  0.83989100  1
  C  480  1  0.62111800  0.34103700  0.84255300  1
  C  481  1  0.61142600  0.37941400  0.84006600  1
  C  482  1  0.63934100  0.40592400  0.83493300  1
  C  495  1  0.86895000  0.57783900  0.32574800  1
  C  496  1  0.85173200  0.55792200  0.34412900  1
  C  497  1  0.81954600  0.53625200  0.33992600  1
  C  498  1  0.80208200  0.53649700  0.31734700  1
  C  499  1  0.82143300  0.55405100  0.29815800  1
  C  500  1  0.85577300  0.57391200  0.30217900  1
  C  503  1  0.89532300  0.60578500  0.33231300  1
  C  504  1  0.88449900  0.64385300  0.33483400  1
  C  505  1  0.91287800  0.67076200  0.33990500  1
  C  506  1  0.95134800  0.66002400  0.34250000  1
  C  507  1  0.96107900  0.62166100  0.34000000  1
  C  508  1  0.93317000  0.59512000  0.33491200  1
  C  521  1  0.86305300  0.58212500  0.93161600  1
  C  522  1  0.84359500  0.56449600  0.91315200  1
  C  523  1  0.82258100  0.53191500  0.91720300  1
  C  524  1  0.82207300  0.51510300  0.93995400  1
  C  525  1  0.84113300  0.53365700  0.95883000  1
  C  526  1  0.86012200  0.56827200  0.95505200  1
  C  529  1  0.89083100  0.60873100  0.92516500  1
  C  530  1  0.92921600  0.59832500  0.92232100  1
  C  531  1  0.95613800  0.62689800  0.91785000  1
  C  532  1  0.94503300  0.66503800  0.91562000  1
  C  533  1  0.90643400  0.67444900  0.91871600  1
  C  534  1  0.87990600  0.64637500  0.92346800  1
  C  547  1  0.70957300  0.41878300  0.43169700  1
  C  548  1  0.72900000  0.43640400  0.41321500  1
  C  549  1  0.74993800  0.46904000  0.41723800  1
  C  550  1  0.75046000  0.48586900  0.43998600  1
  C  551  1  0.73143400  0.46731800  0.45887600  1
  C  552  1  0.71245300  0.43269700  0.45511900  1
  C  555  1  0.68176100  0.39221600  0.42523100  1
  C  556  1  0.64338700  0.40266100  0.42238600  1
  C  557  1  0.61643500  0.37412400  0.41788700  1
  C  558  1  0.62751700  0.33598400  0.41559700  1
  C  559  1  0.66610500  0.32654300  0.41871500  1
  C  560  1  0.69266100  0.35457500  0.42349600  1
  C  573  1  0.86728700  0.42300700  0.68090200  1
  C  574  1  0.84967100  0.44290800  0.66263200  1
  C  575  1  0.81724400  0.46426300  0.66695300  1
  C  576  1  0.80041900  0.46449200  0.68974200  1
  C  577  1  0.81900400  0.44500400  0.70842500  1
  C  578  1  0.85363300  0.42584200  0.70440900  1
  C  581  1  0.89387200  0.39532300  0.67423300  1
  C  582  1  0.88335100  0.35715600  0.67175000  1
  C  583  1  0.91203800  0.33034700  0.66718600  1
  C  584  1  0.95045500  0.34132100  0.66476200  1
  C  585  1  0.95990900  0.37975600  0.66723500  1
  C  586  1  0.93173200  0.40617000  0.67202200  1
  C  599  1  0.70538900  0.57796400  0.18090400  1
  C  600  1  0.72301100  0.55808300  0.16263300  1
  C  601  1  0.75544100  0.53674200  0.16695800  1
  C  602  1  0.77222900  0.53645800  0.18975800  1
  C  603  1  0.75361900  0.55591800  0.20844300  1
  C  604  1  0.71899900  0.57510000  0.20442200  1
  C  607  1  0.67880500  0.60566200  0.17425400  1
  C  608  1  0.68934800  0.64381900  0.17176300  1
  C  609  1  0.66068000  0.67063600  0.16719400  1
  C  610  1  0.62224400  0.65969800  0.16480100  1
  C  611  1  0.61277100  0.62127100  0.16729000  1
  C  612  1  0.64093300  0.59483800  0.17207300  1
  C  625  1  0.36780600  0.41760700  0.43238700  1
  C  626  1  0.34770500  0.43502100  0.41413400  1
  C  627  1  0.32654000  0.46738200  0.41841800  1
  C  628  1  0.32735400  0.48466300  0.44101300  1
  C  629  1  0.34509700  0.46525000  0.46010500  1
  C  630  1  0.36462800  0.43092500  0.45596100  1
  C  633  1  0.39561800  0.39123000  0.42554600  1
  C  634  1  0.43380900  0.40195300  0.42218700  1
  C  635  1  0.46061300  0.37378400  0.41653800  1
  C  636  1  0.44964000  0.33563900  0.41405100  1
  C  637  1  0.41130500  0.32582900  0.41788700  1
  C  638  1  0.38484400  0.35358000  0.42349400  1
  C  651  1  0.20479300  0.58344600  0.93243100  1
  C  652  1  0.22487000  0.56603400  0.91416400  1
  C  653  1  0.24595100  0.53361300  0.91843100  1
  C  654  1  0.24513500  0.51631500  0.94102200  1
  C  655  1  0.22740200  0.53571900  0.96012100  1
  C  656  1  0.20789600  0.57005800  0.95598900  1
  C  659  1  0.17698200  0.60981700  0.92557800  1
  C  660  1  0.13879000  0.59910200  0.92220600  1
  C  661  1  0.11196800  0.62728500  0.91660600  1
  C  662  1  0.12295100  0.66543300  0.91415600  1
  C  663  1  0.16128900  0.67522900  0.91800200  1
  C  664  1  0.18775600  0.64747000  0.92356800  1
  C  677  1  0.36628400  0.57991500  0.18149200  1
  C  678  1  0.34837300  0.56014800  0.16330100  1
  C  679  1  0.31632500  0.53845900  0.16788100  1
  C  680  1  0.29970800  0.53854200  0.19071600  1
  C  681  1  0.31969700  0.55604600  0.20967100  1
  C  682  1  0.35388200  0.57594100  0.20522300  1
  C  685  1  0.39272300  0.60759400  0.17461100  1
  C  686  1  0.38195800  0.64554100  0.17138700  1
  C  687  1  0.41039800  0.67219700  0.16591600  1
  C  688  1  0.44887900  0.66132300  0.16367600  1
  C  689  1  0.45866400  0.62322700  0.16738700  1
  C  690  1  0.43064800  0.59689500  0.17267700  1
  C  703  1  0.20638400  0.42110100  0.68149300  1
  C  704  1  0.22428700  0.44086200  0.66329900  1
  C  705  1  0.25634700  0.46253000  0.66787400  1
  C  706  1  0.27294000  0.46249900  0.69071600  1
  C  707  1  0.25294100  0.44500900  0.70967400  1
  C  708  1  0.21875600  0.42510600  0.70522800  1
  C  711  1  0.17993300  0.39342300  0.67462500  1
  C  712  1  0.19070200  0.35547800  0.67140100  1
  C  713  1  0.16226800  0.32883100  0.66590300  1
  C  714  1  0.12378300  0.33969300  0.66366400  1
  C  715  1  0.11400100  0.37778900  0.66738900  1
  C  716  1  0.14200800  0.40412400  0.67268700  1
  C  729  1  0.20363600  0.42046000  0.07764300  1
  C  730  1  0.22336200  0.43848300  0.09584700  1
  C  731  1  0.24411800  0.47112700  0.09146300  1
  C  732  1  0.24408700  0.48760300  0.06860700  1
  C  733  1  0.22485400  0.46863300  0.04996100  1
  C  734  1  0.20607800  0.43399300  0.05410100  1
  C  737  1  0.17623900  0.39365400  0.08447400  1
  C  738  1  0.13784000  0.40377000  0.08768500  1
  C  739  1  0.11130800  0.37510000  0.09279800  1
  C  740  1  0.12279900  0.33708200  0.09508600  1
  C  741  1  0.16129700  0.32784400  0.09133300  1
  C  742  1  0.18745400  0.35607400  0.08611800  1
  C  755  1  0.36885300  0.58060900  0.57757300  1
  C  756  1  0.34913700  0.56262300  0.59579900  1
  C  757  1  0.32842700  0.52994000  0.59144300  1
  C  758  1  0.32843200  0.51343600  0.56859400  1
  C  759  1  0.34766900  0.53236700  0.54993400  1
  C  760  1  0.36646700  0.56699800  0.55405000  1
  C  763  1  0.39630500  0.60735100  0.58442200  1
  C  764  1  0.43467400  0.59714900  0.58767700  1
  C  765  1  0.46124700  0.62575800  0.59284200  1
  C  766  1  0.44983900  0.66380000  0.59514100  1
  C  767  1  0.41137500  0.67310600  0.59133000  1
  C  768  1  0.38516100  0.64494800  0.58607900  1
  C  781  1  0.20797900  0.57977600  0.32852800  1
  C  782  1  0.22629000  0.56007300  0.34661500  1
  C  783  1  0.25862900  0.53877900  0.34192900  1
  C  784  1  0.27461900  0.53838900  0.31890200  1
  C  785  1  0.25535100  0.55771600  0.30042000  1
  C  786  1  0.22083700  0.57686100  0.30485000  1
  C  789  1  0.18135800  0.60723100  0.33548900  1
  C  790  1  0.19187700  0.64526500  0.33866600  1
  C  791  1  0.16318800  0.67185400  0.34372300  1
  C  792  1  0.12473700  0.66081300  0.34578200  1
  C  793  1  0.11519100  0.62266500  0.34205900  1
  C  794  1  0.14341800  0.59641300  0.33704700  1
  C  807  1  0.36452100  0.42117900  0.82857800  1
  C  808  1  0.34618900  0.44086000  0.84666100  1
  C  809  1  0.31384300  0.46213400  0.84196600  1
  C  810  1  0.29791100  0.46258600  0.81892300  1
  C  811  1  0.31721500  0.44328100  0.80044400  1
  C  812  1  0.35172300  0.42412800  0.80488700  1
  C  815  1  0.39115000  0.39372100  0.83552400  1
  C  816  1  0.38063500  0.35568400  0.83867900  1
  C  817  1  0.40931700  0.32910100  0.84374800  1
  C  818  1  0.44776400  0.34014200  0.84582800  1
  C  819  1  0.45732500  0.37828800  0.84209800  1
  C  820  1  0.42909200  0.40453900  0.83708900  1
  C  833  1  0.17374500  0.21242500  0.08928700  1
  C  835  1  0.16696200  0.26985800  0.06788600  1
  C  836  1  0.17298300  0.29019200  0.08904600  1
  C  838  1  0.18118000  0.23278700  0.11004500  1
  C  840  1  0.15702000  0.28737100  0.04508800  1
  C  844  1  0.39875900  0.78850100  0.58933900  1
  C  846  1  0.40587200  0.73111000  0.56794800  1
  C  847  1  0.39975900  0.71079700  0.58911000  1
  C  849  1  0.39120100  0.76814900  0.61008000  1
  C  851  1  0.41598800  0.71362800  0.54516800  1
  C  855  1  0.07663600  0.88802000  0.34173500  1
  C  857  1  0.02044100  0.88264500  0.31850800  1
  C  858  1  0.99847700  0.88676300  0.33924500  1
  C  860  1  0.05462300  0.89387800  0.36208300  1
  C  862  1  0.00445300  0.87456300  0.29496100  1
  C  866  1  0.49587600  0.11288100  0.84170800  1
  C  868  1  0.55208000  0.11827800  0.81849600  1
  C  869  1  0.57407100  0.11422000  0.83923100  1
  C  871  1  0.51786700  0.10696900  0.86205500  1
  C  873  1  0.56805900  0.12638400  0.79495000  1
  C  877  1  0.39875100  0.21026900  0.41830900  1
  C  879  1  0.40597300  0.26698200  0.44044500  1
  C  880  1  0.39992700  0.28800700  0.41956000  1
  C  882  1  0.39127400  0.23134300  0.39784700  1
  C  884  1  0.41619000  0.28366800  0.46344400  1
  C  888  1  0.17362800  0.79073100  0.91849900  1
  C  890  1  0.16653100  0.73405300  0.94063400  1
  C  891  1  0.17263900  0.71305400  0.91975000  1
  C  893  1  0.18111900  0.76970400  0.89802000  1
  C  895  1  0.15642400  0.71729000  0.96362900  1
  C  899  1  0.49476700  0.88868100  0.16599400  1
  C  901  1  0.55020700  0.88210100  0.18982800  1
  C  902  1  0.57286300  0.88638200  0.16940100  1
  C  904  1  0.51745400  0.89465000  0.14596500  1
  C  906  1  0.56536900  0.87332300  0.21349000  1
  C  910  1  0.07789200  0.11240100  0.66601300  1
  C  912  1  0.02240000  0.11891300  0.68983500  1
  C  913  1  0.99977800  0.11463400  0.66940000  1
  C  915  1  0.05518000  0.10650500  0.64597800  1
  C  917  1  0.00723100  0.12770900  0.71349400  1
  C  921  1  0.89362200  0.78980300  0.91931100  1
  C  923  1  0.89886700  0.73294600  0.94146800  1
  C  924  1  0.89461300  0.71211500  0.92034000  1
  C  926  1  0.88785200  0.76892700  0.89855000  1
  C  928  1  0.90701200  0.71596400  0.96470000  1
  C  932  1  0.67905500  0.21122600  0.41923000  1
  C  934  1  0.67356300  0.26803600  0.44139800  1
  C  935  1  0.67788400  0.28885100  0.42026400  1
  C  937  1  0.68494000  0.23209300  0.39848300  1
  C  939  1  0.66528200  0.28498300  0.46462400  1
  C  943  1  0.67904100  0.79184200  0.58942600  1
  C  945  1  0.67340000  0.73557700  0.56672700  1
  C  946  1  0.67779100  0.71424400  0.58763900  1
  C  948  1  0.68499600  0.77046500  0.60996200  1
  C  950  1  0.66501000  0.71918200  0.54335800  1
  C  954  1  0.89344500  0.20918000  0.08939300  1
  C  956  1  0.89908900  0.26546400  0.06670800  1
  C  957  1  0.89474800  0.28676900  0.08763600  1
  C  959  1  0.88743100  0.23052600  0.10993700  1
  C  961  1  0.90749500  0.28187300  0.04334700  1
  C  965  1  0.57353700  0.39124100  0.83966100  1
  C  967  1  0.51548800  0.38415400  0.81850100  1
  C  968  1  0.49526100  0.38973900  0.83980300  1
  C  970  1  0.55321100  0.39828000  0.86053800  1
  C  972  1  0.49768400  0.37433900  0.79574100  1
  C  976  1  0.99899300  0.60990100  0.33951900  1
  C  978  1  0.05703000  0.61684900  0.31838300  1
  C  979  1  0.07726600  0.61123300  0.33967700  1
  C  981  1  0.01926500  0.60288700  0.36041800  1
  C  983  1  0.07491400  0.62653800  0.29562800  1
  C  987  1  0.99777200  0.39162500  0.66819300  1
  C  989  1  0.05494100  0.38389200  0.69018100  1
  C  990  1  0.07601000  0.38927100  0.66919000  1
  C  992  1  0.01890300  0.39849200  0.64761700  1
  C  994  1  0.07186200  0.37391300  0.71317500  1
  C  998  1  0.57490500  0.60943800  0.16825900  1
  C  1000  1  0.51767900  0.61712400  0.19022500  1
  C  1001  1  0.49665100  0.61174300  0.16922500  1
  C  1003  1  0.55375600  0.60264100  0.14767200  1
  C  1005  1  0.50074500  0.62713200  0.21320800  1
  C  1009  1  0.99497500  0.11637600  0.09009400  1
  C  1011  1  0.05164500  0.12199200  0.06745700  1
  C  1012  1  0.07302400  0.11866700  0.08848800  1
  C  1014  1  0.01642700  0.11173100  0.11078900  1
  C  1016  1  0.06834900  0.12889200  0.04396300  1
  C  1020  1  0.57754400  0.88471500  0.59020200  1
  C  1022  1  0.52089600  0.87893000  0.56754900  1
  C  1023  1  0.49950900  0.88223200  0.58857900  1
  C  1025  1  0.55607000  0.88932700  0.61089000  1
  C  1027  1  0.50422400  0.87197400  0.54405500  1
  C  1031  1  0.17167300  0.71047600  0.34324300  1
  C  1033  1  0.16583500  0.76683100  0.32075800  1
  C  1034  1  0.17049400  0.78793300  0.34173600  1
  C  1036  1  0.17765700  0.73160900  0.36386900  1
  C  1038  1  0.15804700  0.78352700  0.29739600  1
  C  1042  1  0.40084600  0.29048400  0.84325600  1
  C  1044  1  0.40674500  0.23411900  0.82076500  1
  C  1045  1  0.40206400  0.21299000  0.84173100  1
  C  1047  1  0.39479500  0.26932400  0.86386400  1
  C  1049  1  0.41459300  0.21745000  0.79740400  1
  C  1053  1  0.57852900  0.11708900  0.41842900  1
  C  1055  1  0.52097500  0.12120000  0.44030000  1
  C  1056  1  0.50041900  0.11775500  0.41895100  1
  C  1058  1  0.55790900  0.11224700  0.39742000  1
  C  1060  1  0.50331100  0.12738900  0.46359900  1
  C  1064  1  0.99411300  0.88395400  0.91852600  1
  C  1066  1  0.05168800  0.88003900  0.94038100  1
  C  1067  1  0.07221400  0.88346400  0.91902300  1
  C  1069  1  0.01470900  0.88875900  0.89750000  1
  C  1071  1  0.06940200  0.87399400  0.96367800  1
  C  1075  1  0.40151400  0.71073800  0.16570500  1
  C  1077  1  0.40602000  0.76805200  0.18732100  1
  C  1078  1  0.40157000  0.78823600  0.16596000  1
  C  1080  1  0.39561800  0.73094500  0.14470100  1
  C  1082  1  0.41299500  0.78579000  0.21047700  1
  C  1086  1  0.17114500  0.29029500  0.66569700  1
  C  1088  1  0.16665100  0.23297200  0.68732500  1
  C  1089  1  0.17114100  0.21275900  0.66598300  1
  C  1091  1  0.17698400  0.27004000  0.64470200  1
  C  1093  1  0.15964100  0.21525400  0.71048200  1
  C  1097  1  0.90343800  0.29176300  0.66797600  1
  C  1099  1  0.90894100  0.23585200  0.69098200  1
  C  1100  1  0.90492600  0.21433400  0.67010200  1
  C  1102  1  0.89804100  0.27021200  0.64746900  1
  C  1104  1  0.91632900  0.22086200  0.71485800  1
  C  1108  1  0.66929500  0.70921100  0.16797800  1
  C  1110  1  0.66370400  0.76516200  0.19096100  1
  C  1111  1  0.66767700  0.78667000  0.17007200  1
  C  1113  1  0.67472200  0.73077300  0.14747300  1
  C  1115  1  0.65628900  0.78014400  0.21483500  1
  C  1119  1  0.66854500  0.29173300  0.83974400  1
  C  1121  1  0.66472400  0.23493200  0.81750800  1
  C  1122  1  0.66842400  0.21423700  0.83874400  1
  C  1124  1  0.67377000  0.27102200  0.86061700  1
  C  1126  1  0.65838400  0.21894700  0.79377200  1
  C  1130  1  0.90385600  0.70926700  0.33976700  1
  C  1132  1  0.90770900  0.76610400  0.31754500  1
  C  1133  1  0.90406100  0.78681000  0.33878300  1
  C  1135  1  0.89863700  0.72998700  0.36063800  1
  C  1137  1  0.91406500  0.78208300  0.29380900  1
  C  1141  1  0.50020300  0.61773500  0.59182400  1
  C  1143  1  0.55591500  0.62402700  0.56831000  1
  C  1144  1  0.57814800  0.61953500  0.58891800  1
  C  1146  1  0.52244900  0.61183000  0.61204200  1
  C  1148  1  0.57030800  0.63212900  0.54436000  1
  C  1152  1  0.07233800  0.38303400  0.09174500  1
  C  1154  1  0.01659700  0.37687800  0.06825500  1
  C  1155  1  0.99440000  0.38145400  0.08886700  1
  C  1157  1  0.05012700  0.38897000  0.11197600  1
  C  1159  1  0.00213300  0.36890200  0.04430500  1
  C  1163  1  0.07312100  0.61862400  0.91700500  1
  C  1165  1  0.01650100  0.62276200  0.93981000  1
  C  1166  1  0.99508200  0.61846500  0.91884500  1
  C  1168  1  0.05175200  0.61276900  0.89641100  1
  C  1170  1  0.00106000  0.62961500  0.96365900  1
  C  1174  1  0.49945900  0.38244300  0.41696400  1
  C  1176  1  0.55606100  0.37825400  0.43981000  1
  C  1177  1  0.57749100  0.38258200  0.41885800  1
  C  1179  1  0.52089400  0.38827600  0.39639400  1
  C  1181  1  0.57145100  0.37128500  0.46365900  1
  C  1185  1  0.22869100  0.01916900  0.02543500  1
  C  1187  1  0.19201600  0.99885000  0.99215900  1
  C  1188  1  0.22512300  0.98494800  0.98131100  1
  C  1190  1  0.26157300  0.00732200  0.01375300  1
  C  1192  1  0.15446100  0.99921700  0.98096000  1
  C  1196  1  0.34400700  0.98183500  0.52539800  1
  C  1198  1  0.38065700  0.00220500  0.49212700  1
  C  1199  1  0.34753400  0.01606200  0.48127500  1
  C  1201  1  0.31111100  0.99365900  0.51372300  1
  C  1203  1  0.41821500  0.00187300  0.48092900  1
  C  1207  1  0.26883700  0.94168300  0.27569900  1
  C  1209  1  0.28777000  0.90565200  0.24188800  1
  C  1210  1  0.30124700  0.93863100  0.23091700  1
  C  1212  1  0.28010200  0.97444400  0.26389200  1
  C  1214  1  0.28679000  0.86851600  0.23051700  1
  C  1218  1  0.30371500  0.05920900  0.77567100  1
  C  1220  1  0.28481000  0.09523700  0.74185100  1
  C  1221  1  0.27129800  0.06226300  0.73089100  1
  C  1223  1  0.29243900  0.02644500  0.76386700  1
  C  1225  1  0.28582400  0.13236500  0.73047100  1
  C  1229  1  0.83742900  0.98174900  0.98303700  1
  C  1231  1  0.87408200  0.00158000  0.01642100  1
  C  1232  1  0.84098700  0.01544900  0.02728900  1
  C  1234  1  0.80453300  0.99344800  0.99476000  1
  C  1236  1  0.91161700  0.00093100  0.02764500  1
  C  1240  1  0.73511500  0.01920400  0.48305800  1
  C  1242  1  0.69847900  0.99933100  0.51644200  1
  C  1243  1  0.73158600  0.98547700  0.52730600  1
  C  1245  1  0.76802300  0.00750500  0.49477400  1
  C  1247  1  0.66093900  0.99992400  0.52765700  1
  C  1251  1  0.80541700  0.05924800  0.73326000  1
  C  1253  1  0.78456100  0.09531300  0.76658100  1
  C  1254  1  0.77035600  0.06235100  0.77720100  1
  C  1256  1  0.79348400  0.02648000  0.74479400  1
  C  1258  1  0.78490100  0.13246000  0.77795000  1
  C  1262  1  0.76721700  0.94178900  0.23325900  1
  C  1264  1  0.78806200  0.90572800  0.26658400  1
  C  1265  1  0.80223900  0.93869500  0.27721100  1
  C  1267  1  0.77918700  0.97455300  0.24478400  1
  C  1269  1  0.78770000  0.86858200  0.27795800  1
  C  1273  1  0.73399800  0.52021600  0.52505400  1
  C  1275  1  0.69734200  0.49861900  0.49210600  1
  C  1276  1  0.73045200  0.48424700  0.48151400  1
  C  1278  1  0.76689700  0.50798500  0.51355200  1
  C  1280  1  0.65981300  0.49866300  0.48086900  1
  C  1284  1  0.83865300  0.48082000  0.02503000  1
  C  1286  1  0.87527000  0.50242600  0.99206700  1
  C  1287  1  0.84213800  0.51673600  0.98147000  1
  C  1289  1  0.80573500  0.49301500  0.01353400  1
  C  1291  1  0.91279600  0.50239800  0.98082500  1
  C  1295  1  0.76739700  0.44705200  0.77516100  1
  C  1297  1  0.78795500  0.41097700  0.74177000  1
  C  1298  1  0.80224400  0.44390000  0.73115200  1
  C  1300  1  0.77942000  0.47979400  0.76363200  1
  C  1302  1  0.78734600  0.37386000  0.73036700  1
  C  1306  1  0.80520700  0.55385000  0.27518200  1
  C  1308  1  0.78466500  0.58993400  0.24179100  1
  C  1309  1  0.77036200  0.55701600  0.23117300  1
  C  1311  1  0.79320000  0.52111100  0.26364700  1
  C  1313  1  0.78529600  0.62705100  0.23038600  1
  C  1317  1  0.34520600  0.48132100  0.48310800  1
  C  1319  1  0.38182000  0.50189900  0.51635900  1
  C  1320  1  0.34871600  0.51598100  0.52711700  1
  C  1322  1  0.31231500  0.49325700  0.49475100  1
  C  1324  1  0.41930100  0.50145600  0.52765100  1
  C  1328  1  0.22729000  0.51962800  0.98311800  1
  C  1330  1  0.19068300  0.49902000  0.01636300  1
  C  1331  1  0.22379500  0.48497700  0.02713100  1
  C  1333  1  0.26018600  0.50771500  0.99476300  1
  C  1335  1  0.15318500  0.49939100  0.02763500  1
  C  1339  1  0.30428200  0.55577000  0.23287200  1
  C  1341  1  0.28510200  0.59176500  0.26662800  1
  C  1342  1  0.27133900  0.55880000  0.27747100  1
  C  1344  1  0.29284900  0.52298900  0.24459500  1
  C  1346  1  0.28613800  0.62886500  0.27804200  1
  C  1350  1  0.26835900  0.44527700  0.73287600  1
  C  1352  1  0.28751700  0.40925700  0.76662700  1
  C  1353  1  0.30125500  0.44221700  0.77748600  1
  C  1355  1  0.27982900  0.47804700  0.74460000  1
  C  1357  1  0.28645000  0.37215100  0.77803200  1
  C  1361  1  0.29596600  0.97791400  0.14722000  1
  C  1363  1  0.29871400  0.02753400  0.11898300  1
  C  1364  1  0.26327200  0.01627400  0.11010500  1
  C  1366  1  0.26110000  0.96652700  0.13793300  1
  C  1368  1  0.32056500  0.05902700  0.10926100  1
  C  1372  1  0.27669500  0.02303400  0.64718800  1
  C  1374  1  0.27395100  0.97344400  0.61893000  1
  C  1375  1  0.30939000  0.98472500  0.61005300  1
  C  1377  1  0.31157100  0.03442000  0.63791700  1
  C  1379  1  0.25209600  0.94196700  0.60919200  1
  C  1383  1  0.31142500  0.01228600  0.39702700  1
  C  1385  1  0.26140800  0.01325300  0.36878300  1
  C  1386  1  0.27394600  0.97843500  0.35995200  1
  C  1388  1  0.32413100  0.97809200  0.38776200  1
  C  1390  1  0.22885000  0.03375900  0.35911200  1
  C  1394  1  0.26113800  0.98871800  0.89704500  1
  C  1396  1  0.31107700  0.98771500  0.86874700  1
  C  1397  1  0.29854000  0.02254200  0.85993100  1
  C  1399  1  0.24841600  0.02290800  0.88778300  1
  C  1401  1  0.34360600  0.96719600  0.85904700  1
  C  1405  1  0.77141500  0.02429700  0.86108300  1
  C  1407  1  0.76857000  0.97418800  0.88893700  1
  C  1408  1  0.80355800  0.98585600  0.89830400  1
  C  1410  1  0.80578500  0.03610800  0.87086500  1
  C  1412  1  0.74697800  0.94215700  0.89816700  1
  C  1416  1  0.80107100  0.97672100  0.36109500  1
  C  1418  1  0.80394900  0.02681200  0.38896200  1
  C  1419  1  0.76894400  0.01516900  0.39831800  1
  C  1421  1  0.76668600  0.96493600  0.37087000  1
  C  1423  1  0.82556300  0.05882200  0.39820000  1
  C  1427  1  0.76677300  0.98962400  0.61164800  1
  C  1429  1  0.81607900  0.98842300  0.64036500  1
  C  1430  1  0.80376300  0.02352000  0.64886100  1
  C  1432  1  0.75429800  0.02412500  0.62057400  1
  C  1434  1  0.84808500  0.96764200  0.65051200  1
  C  1438  1  0.80587800  0.01135500  0.11164200  1
  C  1440  1  0.75660600  0.01255400  0.14038100  1
  C  1441  1  0.76890200  0.97743500  0.14885000  1
  C  1443  1  0.81834700  0.97684100  0.12054900  1
  C  1445  1  0.72461700  0.03333900  0.15054900  1
  C  1449  1  0.80077600  0.48179500  0.64725500  1
  C  1451  1  0.80391500  0.53103800  0.61880600  1
  C  1452  1  0.76880300  0.51934700  0.60964000  1
  C  1454  1  0.76625100  0.46998700  0.63769200  1
  C  1456  1  0.82571500  0.56260900  0.60914500  1
  C  1460  1  0.77191700  0.51920800  0.14726500  1
  C  1462  1  0.76875000  0.47001500  0.11878300  1
  C  1463  1  0.80384500  0.48173400  0.10960600  1
  C  1465  1  0.80643600  0.53102600  0.13770300  1
  C  1467  1  0.74693600  0.43846300  0.10910700  1
  C  1471  1  0.80579900  0.51526700  0.89730400  1
  C  1473  1  0.75662000  0.51716800  0.86853000  1
  C  1474  1  0.76912900  0.48238800  0.85963800  1
  C  1476  1  0.81852100  0.48114800  0.88794600  1
  C  1478  1  0.72455500  0.53810800  0.85858800  1
  C  1482  1  0.76668900  0.48568000  0.39732700  1
  C  1484  1  0.81585700  0.48378700  0.36854500  1
  C  1485  1  0.80335400  0.51857500  0.35966300  1
  C  1487  1  0.75395600  0.51979600  0.38796900  1
  C  1489  1  0.84791900  0.46285300  0.35859500  1
  C  1493  1  0.27573600  0.52130900  0.36145000  1
  C  1495  1  0.27348400  0.47211400  0.38997800  1
  C  1496  1  0.30884800  0.48383800  0.39874500  1
  C  1498  1  0.31053000  0.53314400  0.37061100  1
  C  1500  1  0.25199100  0.44052200  0.39988500  1
  C  1504  1  0.29673200  0.47964300  0.86147100  1
  C  1506  1  0.29900900  0.52884400  0.88999400  1
  C  1507  1  0.26362500  0.51715900  0.89875100  1
  C  1509  1  0.26192200  0.46783900  0.87062500  1
  C  1511  1  0.32052300  0.56042200  0.89990100  1
  C  1515  1  0.26158800  0.48791200  0.11109800  1
  C  1517  1  0.31185500  0.48618400  0.13914700  1
  C  1518  1  0.29948100  0.52083800  0.14831400  1
  C  1520  1  0.24908500  0.52195800  0.12068000  1
  C  1522  1  0.34440900  0.46537200  0.14855700  1
  C  1526  1  0.31100700  0.51316000  0.61109600  1
  C  1528  1  0.26079200  0.51487100  0.63918300  1
  C  1529  1  0.27316300  0.48019800  0.64831900  1
  C  1531  1  0.32351900  0.47910000  0.62065400  1
  C  1533  1  0.22825700  0.53567800  0.64862500  1
  N  8  1  0.26118400  0.98090400  0.06499000  1
  N  15  1  0.09704500  0.19247900  0.09697100  1
  N  17  1  0.19469200  0.09046900  0.03431800  1
  N  18  1  0.12830300  0.06242600  0.08225200  1
  N  34  1  0.31157700  0.02012700  0.56495400  1
  N  41  1  0.47545500  0.80843800  0.59708900  1
  N  43  1  0.37797000  0.91050100  0.53428700  1
  N  44  1  0.44426300  0.93848600  0.58227500  1
  N  60  1  0.30869300  0.97459500  0.31454700  1
  N  67  1  0.09673000  0.81239800  0.35139100  1
  N  69  1  0.19784700  0.90694000  0.28600300  1
  N  70  1  0.22738500  0.84233100  0.33461000  1
  N  86  1  0.26382700  0.02632000  0.81451900  1
  N  93  1  0.47580900  0.18850100  0.85139800  1
  N  95  1  0.37470800  0.09396100  0.78598000  1
  N  96  1  0.34514700  0.15863700  0.83457500  1
  N  112  1  0.30966800  0.97994000  0.44331000  1
  N  119  1  0.47560600  0.19126900  0.41039600  1
  N  121  1  0.38018600  0.08757900  0.47240100  1
  N  122  1  0.44572600  0.06063100  0.42401300  1
  N  138  1  0.26293000  0.02108300  0.94332800  1
  N  145  1  0.09686400  0.80988700  0.91051400  1
  N  147  1  0.19246400  0.91343300  0.97245100  1
  N  148  1  0.12702700  0.94050100  0.92399200  1
  N  164  1  0.26398800  0.97749300  0.19377700  1
  N  171  1  0.47522200  0.81298000  0.15629600  1
  N  173  1  0.37270900  0.90579400  0.22075800  1
  N  174  1  0.34408000  0.84241200  0.17177100  1
  N  190  1  0.30858400  0.02338100  0.69376600  1
  N  197  1  0.09747000  0.18809000  0.65634900  1
  N  199  1  0.19987400  0.09515500  0.72070100  1
  N  200  1  0.22861300  0.15853900  0.67172900  1
  N  216  1  0.80472700  0.02037300  0.94366800  1
  N  223  1  0.97046300  0.80959200  0.91207500  1
  N  225  1  0.87176300  0.91077400  0.97383000  1
  N  226  1  0.93878500  0.93994900  0.92557500  1
  N  242  1  0.76778100  0.98060600  0.44367200  1
  N  249  1  0.60221600  0.19144200  0.41191700  1
  N  251  1  0.70081500  0.09021700  0.47387500  1
  N  252  1  0.63382400  0.06110600  0.42560100  1
  N  268  1  0.76726200  0.02663900  0.69367100  1
  N  275  1  0.97947900  0.19079000  0.66183300  1
  N  277  1  0.87687000  0.09392700  0.72435500  1
  N  278  1  0.84842200  0.15927000  0.67621100  1
  N  294  1  0.80538100  0.97439100  0.19366400  1
  N  301  1  0.59314100  0.81023000  0.16181800  1
  N  303  1  0.69575800  0.90709900  0.22436300  1
  N  304  1  0.72420100  0.84170400  0.17622200  1
  N  320  1  0.76977800  0.02136700  0.56525000  1
  N  327  1  0.60198900  0.81063400  0.59662100  1
  N  329  1  0.69865900  0.91415800  0.53614900  1
  N  330  1  0.63235500  0.94166100  0.58469700  1
  N  346  1  0.80282800  0.97958900  0.06525100  1
  N  353  1  0.97049700  0.19041500  0.09657200  1
  N  355  1  0.87391700  0.08678300  0.03610200  1
  N  356  1  0.94018900  0.05937900  0.08463800  1
  N  372  1  0.80542000  0.02354700  0.81519300  1
  N  379  1  0.59381000  0.19053600  0.84647000  1
  N  381  1  0.69837800  0.09520300  0.78565900  1
  N  382  1  0.72548200  0.15930800  0.83437900  1
  N  398  1  0.76712700  0.97749000  0.31518800  1
  N  405  1  0.97868700  0.81046100  0.34649900  1
  N  407  1  0.87421700  0.90583600  0.28569800  1
  N  408  1  0.84702300  0.84174800  0.33443000  1
  N  424  1  0.76690800  0.48305500  0.56486400  1
  N  431  1  0.60175800  0.69348800  0.59719100  1
  N  433  1  0.69926000  0.59141100  0.53341700  1
  N  434  1  0.63368300  0.56367600  0.58220300  1
  N  450  1  0.80582200  0.51804000  0.06483700  1
  N  457  1  0.97078000  0.30751400  0.09719400  1
  N  459  1  0.87335800  0.40960000  0.03341400  1
  N  460  1  0.93886100  0.43732900  0.08221000  1
  N  476  1  0.80548700  0.47978000  0.81476600  1
  N  483  1  0.59377900  0.31515600  0.84718500  1
  N  485  1  0.69599100  0.41227300  0.78409200  1
  N  486  1  0.72475500  0.34672500  0.83236900  1
  N  502  1  0.76707900  0.52109700  0.31477100  1
  N  509  1  0.97867300  0.68593900  0.34708300  1
  N  511  1  0.87658700  0.58867400  0.28414300  1
  N  512  1  0.84768000  0.65422500  0.33247000  1
  N  528  1  0.80374700  0.48188700  0.94324800  1
  N  535  1  0.97093200  0.69234600  0.91105000  1
  N  537  1  0.87514400  0.58835400  0.97328500  1
  N  538  1  0.93997900  0.56177600  0.92397100  1
  N  554  1  0.76876700  0.51909900  0.44326400  1
  N  561  1  0.60160400  0.30870700  0.41097800  1
  N  563  1  0.69744900  0.41262100  0.47335600  1
  N  564  1  0.63265300  0.43921500  0.42406800  1
  N  580  1  0.76719200  0.48299300  0.69326700  1
  N  587  1  0.97798200  0.31554000  0.66034900  1
  N  589  1  0.87398400  0.41065400  0.72249400  1
  N  590  1  0.84653800  0.34656900  0.67371600  1
  N  606  1  0.80544800  0.51794500  0.19328800  1
  N  613  1  0.59473000  0.68549800  0.16039500  1
  N  615  1  0.69863600  0.59029300  0.22250300  1
  N  616  1  0.72617000  0.65438400  0.17370600  1
  N  632  1  0.31230100  0.51958400  0.44371400  1
  N  639  1  0.47539600  0.30863500  0.40853100  1
  N  641  1  0.37982900  0.41026900  0.47388500  1
  N  642  1  0.44444000  0.43848800  0.42430800  1
  N  658  1  0.26018000  0.48138800  0.94371400  1
  N  665  1  0.09718500  0.69245700  0.90867700  1
  N  667  1  0.19271600  0.59071700  0.97391300  1
  N  668  1  0.12816400  0.56256200  0.92429000  1
  N  684  1  0.26485400  0.52304200  0.19376100  1
  N  691  1  0.47622400  0.68690900  0.15847200  1
  N  693  1  0.37526900  0.59065000  0.22301100  1
  N  694  1  0.34515000  0.65605000  0.17355400  1
  N  710  1  0.30777800  0.47804100  0.69376500  1
  N  717  1  0.09644200  0.31411400  0.65844300  1
  N  719  1  0.19736500  0.41038600  0.72301500  1
  N  720  1  0.22750700  0.34496600  0.67357300  1
  N  736  1  0.26209800  0.52089600  0.06498000  1
  N  743  1  0.09734000  0.30966300  0.10034400  1
  N  745  1  0.19084600  0.41354600  0.03610500  1
  N  746  1  0.12671500  0.44019600  0.08587300  1
  N  762  1  0.31039500  0.48015100  0.56498700  1
  N  769  1  0.47533700  0.69116100  0.60044600  1
  N  771  1  0.38171000  0.58741400  0.53604800  1
  N  772  1  0.44572600  0.56070000  0.58586000  1
  N  788  1  0.30772200  0.51988800  0.31496000  1
  N  795  1  0.09722000  0.68630900  0.35081400  1
  N  797  1  0.19988900  0.59196200  0.28700200  1
  N  798  1  0.22867500  0.65595000  0.33682300  1
  N  814  1  0.26482400  0.48110400  0.81496500  1
  N  821  1  0.47527200  0.31465100  0.85089000  1
  N  823  1  0.37269500  0.40903200  0.78704600  1
  N  824  1  0.34383900  0.34499700  0.83682100  1
  N  834  1  0.16659100  0.23204400  0.06930100  1
  N  837  1  0.17918700  0.27057000  0.10923500  1
  N  845  1  0.40613800  0.76892400  0.56936500  1
  N  848  1  0.39334000  0.73037400  0.60928100  1
  N  856  1  0.05839800  0.88236600  0.32100100  1
  N  859  1  0.01669000  0.89155100  0.36013900  1
  N  867  1  0.51412100  0.11854200  0.82098000  1
  N  870  1  0.55579200  0.10943000  0.86010500  1
  N  878  1  0.40619500  0.22922400  0.43852000  1
  N  881  1  0.39347800  0.26907900  0.39914600  1
  N  889  1  0.16626700  0.77181100  0.93872600  1
  N  892  1  0.17904200  0.73195700  0.89931700  1
  N  900  1  0.51233800  0.88230500  0.18687800  1
  N  903  1  0.55529200  0.89178500  0.14834900  1
  N  911  1  0.06027100  0.11873500  0.68688900  1
  N  914  1  0.01733600  0.10926100  0.64834200  1
  N  922  1  0.89925700  0.77072700  0.93969500  1
  N  925  1  0.88991500  0.73119300  0.89979200  1
  N  933  1  0.67324200  0.23025700  0.43961700  1
  N  936  1  0.68275200  0.26981800  0.39972300  1
  N  944  1  0.67311600  0.77330500  0.56887100  1
  N  947  1  0.68277500  0.73277100  0.60835800  1
  N  955  1  0.89936900  0.22773400  0.06884600  1
  N  958  1  0.88976100  0.26821700  0.10834600  1
  N  966  1  0.55359600  0.38409000  0.81974500  1
  N  969  1  0.51517400  0.39594800  0.85991100  1
  N  977  1  0.01892300  0.61695400  0.31959300  1
  N  980  1  0.05731000  0.60510200  0.35979000  1
  N  988  1  0.01689300  0.38421800  0.68839000  1
  N  991  1  0.05687900  0.39567500  0.64880100  1
  N  999  1  0.55572700  0.61681500  0.18844300  1
  N  1002  1  0.51577500  0.60535900  0.14883300  1
  N  1010  1  0.01361400  0.12154100  0.06945200  1
  N  1013  1  0.05439100  0.11399700  0.10924200  1
  N  1021  1  0.55892500  0.87945600  0.56955700  1
  N  1024  1  0.51811400  0.88695600  0.60933700  1
  N  1032  1  0.16584000  0.72909200  0.32271500  1
  N  1035  1  0.17583300  0.76933100  0.36239600  1
  N  1043  1  0.40673100  0.27185400  0.82273600  1
  N  1046  1  0.39669300  0.23160500  0.86238300  1
  N  1054  1  0.55907100  0.12157300  0.43883800  1
  N  1057  1  0.51986300  0.11376400  0.39843800  1
  N  1065  1  0.01359100  0.87961000  0.93893600  1
  N  1068  1  0.05276100  0.88734900  0.89850400  1
  N  1076  1  0.40661000  0.73024300  0.18597800  1
  N  1079  1  0.39694600  0.76873400  0.14556800  1
  N  1087  1  0.16604500  0.27077600  0.68596800  1
  N  1090  1  0.17573800  0.23225200  0.64558300  1
  N  1098  1  0.90888200  0.27354600  0.68868700  1
  N  1101  1  0.90001800  0.23254400  0.64926200  1
  N  1109  1  0.66380300  0.72747000  0.18867100  1
  N  1112  1  0.67265000  0.76843300  0.14925000  1
  N  1120  1  0.66408100  0.27269900  0.81923900  1
  N  1123  1  0.67239200  0.23327600  0.85936400  1
  N  1131  1  0.90833200  0.72834000  0.31927400  1
  N  1134  1  0.90011100  0.76772800  0.35938900  1
  N  1142  1  0.51802400  0.62378200  0.57100200  1
  N  1145  1  0.56034600  0.61400600  0.60988400  1
  N  1153  1  0.05449400  0.37707600  0.07092400  1
  N  1156  1  0.01221700  0.38692400  0.10983400  1
  N  1164  1  0.05447800  0.62348700  0.93765900  1
  N  1167  1  0.01375100  0.61409200  0.89806600  1
  N  1175  1  0.51809100  0.37752700  0.43762400  1
  N  1178  1  0.55889400  0.38700800  0.39806300  1
  N  1186  1  0.19559200  0.01448400  0.01386300  1
  N  1189  1  0.25840200  0.99002300  0.99263700  1
  N  1197  1  0.37710000  0.98656400  0.51382900  1
  N  1200  1  0.31426400  0.01097100  0.49261100  1
  N  1208  1  0.27307200  0.90896000  0.26390200  1
  N  1211  1  0.29660000  0.97152400  0.24247600  1
  N  1219  1  0.29950900  0.09192700  0.76386500  1
  N  1222  1  0.27592400  0.02937200  0.74245600  1
  N  1230  1  0.87051400  0.98623500  0.99464800  1
  N  1233  1  0.80770300  0.01057500  0.01593000  1
  N  1241  1  0.70203700  0.01468100  0.49466800  1
  N  1244  1  0.76486400  0.99037900  0.51594600  1
  N  1252  1  0.80053400  0.09198500  0.74493000  1
  N  1255  1  0.77565700  0.02943500  0.76578100  1
  N  1263  1  0.77208900  0.90905500  0.24493400  1
  N  1266  1  0.79696600  0.97160700  0.26578700  1
  N  1274  1  0.70089900  0.51505800  0.51356600  1
  N  1277  1  0.76373000  0.48979600  0.49274700  1
  N  1285  1  0.87174100  0.48600300  0.01353700  1
  N  1288  1  0.80887600  0.51119000  0.99272400  1
  N  1296  1  0.77210500  0.41432700  0.76345100  1
  N  1299  1  0.79712600  0.47681500  0.74260600  1
  N  1307  1  0.80051200  0.58657800  0.26347200  1
  N  1310  1  0.77547800  0.52409800  0.24262400  1
  N  1318  1  0.37828500  0.48608900  0.49469600  1
  N  1321  1  0.31546600  0.51080300  0.51578100  1
  N  1329  1  0.19421000  0.51482100  0.99469600  1
  N  1332  1  0.25704700  0.49019200  0.01580100  1
  N  1340  1  0.30002000  0.58846500  0.24468700  1
  N  1343  1  0.27602900  0.52590700  0.26591600  1
  N  1351  1  0.27260100  0.41257700  0.74468500  1
  N  1354  1  0.29660000  0.47511500  0.76593500  1
  N  1362  1  0.31330400  0.00771200  0.13724800  1
  N  1365  1  0.24612100  0.98614100  0.11984800  1
  N  1373  1  0.25935700  0.99325000  0.63720000  1
  N  1376  1  0.32655400  0.01482800  0.61982300  1
  N  1384  1  0.28079500  0.02841800  0.38707400  1
  N  1387  1  0.30482400  0.96244200  0.36974800  1
  N  1395  1  0.29172900  0.97256300  0.88705800  1
  N  1398  1  0.26769600  0.03855400  0.86975700  1
  N  1406  1  0.75425900  0.99403300  0.87059600  1
  N  1409  1  0.82055100  0.01639000  0.88896400  1
  N  1417  1  0.81824900  0.00696700  0.37061900  1
  N  1420  1  0.75193400  0.98464700  0.38897600  1
  N  1428  1  0.79695200  0.97324000  0.62197500  1
  N  1431  1  0.77332400  0.03976500  0.63870000  1
  N  1439  1  0.77572200  0.02774500  0.12198900  1
  N  1442  1  0.79933000  0.96119300  0.13867700  1
  N  1450  1  0.81816500  0.51160800  0.63734000  1
  N  1453  1  0.75159200  0.48925200  0.61937600  1
  N  1461  1  0.75451200  0.48941700  0.13733300  1
  N  1464  1  0.82108500  0.51179200  0.11936800  1
  N  1472  1  0.77561500  0.53187100  0.88712700  1
  N  1475  1  0.79960800  0.46596600  0.86962600  1
  N  1483  1  0.79687000  0.46907900  0.38714300  1
  N  1486  1  0.77287800  0.53499200  0.36965800  1
  N  1494  1  0.25867500  0.49150700  0.37160000  1
  N  1497  1  0.32575400  0.51391300  0.38877100  1
  N  1505  1  0.31381200  0.50943400  0.87162300  1
  N  1508  1  0.24670500  0.48708700  0.88878200  1
  N  1516  1  0.29223700  0.47145300  0.12081300  1
  N  1519  1  0.26857600  0.53714600  0.13876800  1
  N  1527  1  0.28037900  0.52961900  0.62084100  1
  N  1530  1  0.30405500  0.46389800  0.63874800  1
