# generated using pymatgen
data_H9C13N4O
_symmetry_space_group_name_H-M   'P 1'
_cell_length_a   31.91290000
_cell_length_b   41.58610000
_cell_length_c   54.08760000
_cell_angle_alpha   90.00000000
_cell_angle_beta   90.00000000
_cell_angle_gamma   90.00000000
_symmetry_Int_Tables_number   1
_chemical_formula_structural   H9C13N4O
_chemical_formula_sum   'H288 C416 N128 O32'
_cell_volume   71781.44159250
_cell_formula_units_Z   32
loop_
 _symmetry_equiv_pos_site_id
 _symmetry_equiv_pos_as_xyz
  1  'x, y, z'
loop_
 _atom_site_type_symbol
 _atom_site_label
 _atom_site_symmetry_multiplicity
 _atom_site_fract_x
 _atom_site_fract_y
 _atom_site_fract_z
 _atom_site_occupancy
  H  7  1  0.02960600  0.20935900  0.33430900  1
  H  16  1  0.08945800  0.17423500  0.40368900  1
  H  17  1  0.09166400  0.31660600  0.34473700  1
  H  18  1  0.95982200  0.12543400  0.43497700  1
  H  19  1  0.08763900  0.23150200  0.40226000  1
  H  20  1  0.97858600  0.19189000  0.36365100  1
  H  31  1  0.52962300  0.87430400  0.66838900  1
  H  40  1  0.58947000  0.90940400  0.59900400  1
  H  41  1  0.59169200  0.76706600  0.65801000  1
  H  42  1  0.45981400  0.95816300  0.56770100  1
  H  43  1  0.58767200  0.85213000  0.60044800  1
  H  44  1  0.47859700  0.89173700  0.63903700  1
  H  55  1  0.49176100  0.86080200  0.33535400  1
  H  64  1  0.46864800  0.87936600  0.41651300  1
  H  65  1  0.37062500  0.79120900  0.32780900  1
  H  66  1  0.58214100  0.95439500  0.41223100  1
  H  67  1  0.41196200  0.85928400  0.39750500  1
  H  68  1  0.49872300  0.91329800  0.34540600  1
  H  79  1  0.99176500  0.22288000  0.66733400  1
  H  88  1  0.96869600  0.20433400  0.58617500  1
  H  89  1  0.87059200  0.29242400  0.67489600  1
  H  90  1  0.08220200  0.12931200  0.59047700  1
  H  91  1  0.91197000  0.22438000  0.60518300  1
  H  92  1  0.99871600  0.17037600  0.65728300  1
  H  103  1  0.98429500  0.86059200  0.66666667  1
  H  112  1  0.91689300  0.85685100  0.59732700  1
  H  113  1  0.87714700  0.78733500  0.69453000  1
  H  114  1  0.00801100  0.94065800  0.56077300  1
  H  115  1  0.86790600  0.86658000  0.63017900  1
  H  116  1  0.97885200  0.91873700  0.64669700  1
  H  127  1  0.48429700  0.22331400  0.33613800  1
  H  136  1  0.41682500  0.22678800  0.40528500  1
  H  137  1  0.37701100  0.29655300  0.30840300  1
  H  138  1  0.50815500  0.14309400  0.44183900  1
  H  139  1  0.36780800  0.21683100  0.37239200  1
  H  140  1  0.47886000  0.16493600  0.35592400  1
  H  151  1  0.51387700  0.20241800  0.67095900  1
  H  160  1  0.55404600  0.20675700  0.59708700  1
  H  161  1  0.61649700  0.28806700  0.68584300  1
  H  162  1  0.45680900  0.12025500  0.57932700  1
  H  163  1  0.62127600  0.20419000  0.62564000  1
  H  164  1  0.53050400  0.14218100  0.65562500  1
  H  175  1  0.01396800  0.88123200  0.33169500  1
  H  184  1  0.05404800  0.87684800  0.40556400  1
  H  185  1  0.11654000  0.79554400  0.31682100  1
  H  186  1  0.95701100  0.96348500  0.42332600  1
  H  187  1  0.12135000  0.87941800  0.37702500  1
  H  188  1  0.03071200  0.94149000  0.34704200  1
  H  199  1  0.03239400  0.70552900  0.83286100  1
  H  208  1  0.08776100  0.67502300  0.90426400  1
  H  209  1  0.13240400  0.79029300  0.82522000  1
  H  210  1  0.95741300  0.62343900  0.93248900  1
  H  211  1  0.08442200  0.73275400  0.90133700  1
  H  212  1  0.97908700  0.68963600  0.86150200  1
  H  223  1  0.53198900  0.37831100  0.16970200  1
  H  232  1  0.58772800  0.40863600  0.09843100  1
  H  233  1  0.63174800  0.29333300  0.17758700  1
  H  234  1  0.45748600  0.46026700  0.06998700  1
  H  235  1  0.58437500  0.35086200  0.10139600  1
  H  236  1  0.47878500  0.39400900  0.14095000  1
  H  247  1  0.47359200  0.37701800  0.83138800  1
  H  256  1  0.45040400  0.39270800  0.91670700  1
  H  257  1  0.36813000  0.29795500  0.82546400  1
  H  258  1  0.57936200  0.45311800  0.92033200  1
  H  259  1  0.42511400  0.35010000  0.90100600  1
  H  260  1  0.51360100  0.41002600  0.84948800  1
  H  271  1  0.97358800  0.70660400  0.17128100  1
  H  280  1  0.95032500  0.69090100  0.08597200  1
  H  281  1  0.86811000  0.78564400  0.17723200  1
  H  282  1  0.07931500  0.63052300  0.08229100  1
  H  283  1  0.92510900  0.73355000  0.10167100  1
  H  284  1  0.01367300  0.67366700  0.15315400  1
  H  295  1  0.98278200  0.36516500  0.16830100  1
  H  304  1  0.91879500  0.35920200  0.09626600  1
  H  305  1  0.87784600  0.28896700  0.19567000  1
  H  306  1  0.00988700  0.44369100  0.06169800  1
  H  307  1  0.86974300  0.36409700  0.12806300  1
  H  308  1  0.97968900  0.41949100  0.14736100  1
  H  319  1  0.48293000  0.71851900  0.83444600  1
  H  328  1  0.41894000  0.72450900  0.90646800  1
  H  329  1  0.37795100  0.79469300  0.80707400  1
  H  330  1  0.50991000  0.63997100  0.94107300  1
  H  331  1  0.36987900  0.71955000  0.87466900  1
  H  332  1  0.47979700  0.66416900  0.85539700  1
  H  343  1  0.52404500  0.70168600  0.17356200  1
  H  352  1  0.55789700  0.70959500  0.09723200  1
  H  353  1  0.62605100  0.78592300  0.18964800  1
  H  354  1  0.45913400  0.62391000  0.08028200  1
  H  355  1  0.62491700  0.70832000  0.12360800  1
  H  356  1  0.53627200  0.64449400  0.15572900  1
  H  367  1  0.02406900  0.38188000  0.82917100  1
  H  376  1  0.05784600  0.37389900  0.90549200  1
  H  377  1  0.12606300  0.29763300  0.81304200  1
  H  378  1  0.95940200  0.45979500  0.92248400  1
  H  379  1  0.12493200  0.37517800  0.87912200  1
  H  380  1  0.03647000  0.43909100  0.84702500  1
  H  390  1  0.01747600  0.21106200  0.50408600  1
  H  393  1  0.04981200  0.22513400  0.46652800  1
  H  394  1  0.02756000  0.20065200  0.44352700  1
  H  395  1  0.08101000  0.19557200  0.45228100  1
  H  397  1  0.98168500  0.19441400  0.54445900  1
  H  399  1  0.08421900  0.11183500  0.46001600  1
  H  405  1  0.51744000  0.87261300  0.49858200  1
  H  408  1  0.54979700  0.85852000  0.53613200  1
  H  409  1  0.52756100  0.88299200  0.55914400  1
  H  410  1  0.58100700  0.88807300  0.55038100  1
  H  412  1  0.48166100  0.88926300  0.45822100  1
  H  414  1  0.58421900  0.97180500  0.54267300  1
  H  420  1  0.03681700  0.85081000  0.49318300  1
  H  423  1  0.01704700  0.82257000  0.52968300  1
  H  424  1  0.00094000  0.84830000  0.55381400  1
  H  425  1  0.96310000  0.82730200  0.53593400  1
  H  427  1  0.05340800  0.87856000  0.45272800  1
  H  429  1  0.89897800  0.88597100  0.52823000  1
  H  435  1  0.53696200  0.23275300  0.50945800  1
  H  438  1  0.51728600  0.26101000  0.47295100  1
  H  439  1  0.50112000  0.23530500  0.44882000  1
  H  440  1  0.46333000  0.25635700  0.46670000  1
  H  442  1  0.55346000  0.20501000  0.54992200  1
  H  444  1  0.39905500  0.19776000  0.47440400  1
  H  450  1  0.00374500  0.70633400  0.00398800  1
  H  453  1  0.03978700  0.72295800  0.96829300  1
  H  454  1  0.02212900  0.69914200  0.94355600  1
  H  455  1  0.07418700  0.69477700  0.95496500  1
  H  457  1  0.96714500  0.68774900  0.04332400  1
  H  459  1  0.08059600  0.61194900  0.96053800  1
  H  465  1  0.50382200  0.37730400  0.99867700  1
  H  468  1  0.53991400  0.36068300  0.03436100  1
  H  469  1  0.52220300  0.38449400  0.05908900  1
  H  470  1  0.57428500  0.38886300  0.04771600  1
  H  472  1  0.46713400  0.39594500  0.95933400  1
  H  474  1  0.58079000  0.47166200  0.04209600  1
  H  480  1  0.03441900  0.34806800  0.99358800  1
  H  483  1  0.01221200  0.32167000  0.03039500  1
  H  484  1  0.99883200  0.34865500  0.05429100  1
  H  485  1  0.95892300  0.32957200  0.03670800  1
  H  487  1  0.05427300  0.37472800  0.95298100  1
  H  489  1  0.90044500  0.39177500  0.02820300  1
  H  495  1  0.53458000  0.73544200  0.00914800  1
  H  498  1  0.51243900  0.76190100  0.97233700  1
  H  499  1  0.49904300  0.73491800  0.94844200  1
  H  500  1  0.45914400  0.75407900  0.96598200  1
  H  502  1  0.55434000  0.70873600  0.04975300  1
  H  504  1  0.40047500  0.69197400  0.97452200  1
  H  510  1  0.98136800  0.33582100  0.29786100  1
  H  513  1  0.95029600  0.37723600  0.27444000  1
  H  514  1  0.92675700  0.36092600  0.24778100  1
  H  515  1  0.97366600  0.38375500  0.24532600  1
  H  517  1  0.01593500  0.29624800  0.32301700  1
  H  519  1  0.01368500  0.32978600  0.20177600  1
  H  525  1  0.48130700  0.74791300  0.70486200  1
  H  528  1  0.45022200  0.70650300  0.72828100  1
  H  529  1  0.42675500  0.72281300  0.75496200  1
  H  530  1  0.47363300  0.69993500  0.75737800  1
  H  532  1  0.51591700  0.78746200  0.67970300  1
  H  534  1  0.51383000  0.75383300  0.80092800  1
  H  540  1  0.52957600  0.73793400  0.30013700  1
  H  543  1  0.56550200  0.69852200  0.27693600  1
  H  544  1  0.58734600  0.71577000  0.25011300  1
  H  545  1  0.54275600  0.69030500  0.24789400  1
  H  547  1  0.48504900  0.77340000  0.32491700  1
  H  549  1  0.49619800  0.74274300  0.20408000  1
  H  555  1  0.02972300  0.34563000  0.70256200  1
  H  558  1  0.06571200  0.38500300  0.72576700  1
  H  559  1  0.08747400  0.36774500  0.75260800  1
  H  560  1  0.04294000  0.39327100  0.75479200  1
  H  562  1  0.98515700  0.31020400  0.67777000  1
  H  564  1  0.99619300  0.34091900  0.79860600  1
  H  570  1  0.04838100  0.76752800  0.71452800  1
  H  573  1  0.08410600  0.72583800  0.73600000  1
  H  574  1  0.09826100  0.73822000  0.76604900  1
  H  575  1  0.05594400  0.71103300  0.76167500  1
  H  577  1  0.01289700  0.81444500  0.69270400  1
  H  579  1  0.99732700  0.75322200  0.80723400  1
  H  585  1  0.55108100  0.31428800  0.28818400  1
  H  588  1  0.58857400  0.35528700  0.26693300  1
  H  589  1  0.60040300  0.34352600  0.23638700  1
  H  590  1  0.56013100  0.37208300  0.24210000  1
  H  592  1  0.51354500  0.26821700  0.30970500  1
  H  594  1  0.49721300  0.33409900  0.19673600  1
  H  600  1  0.47924800  0.32446600  0.71572900  1
  H  603  1  0.43900400  0.36185400  0.73810200  1
  H  604  1  0.41095900  0.34512200  0.76304100  1
  H  605  1  0.45873000  0.36612500  0.76834000  1
  H  607  1  0.52637000  0.28801000  0.69258200  1
  H  609  1  0.46279700  0.28380400  0.81039800  1
  H  615  1  0.97905000  0.75928200  0.28698100  1
  H  618  1  0.93864000  0.72196400  0.26463500  1
  H  619  1  0.91072900  0.73872500  0.23965400  1
  H  620  1  0.95839600  0.71756600  0.23441400  1
  H  622  1  0.02633800  0.79566000  0.31010000  1
  H  624  1  0.96278300  0.79982700  0.19227700  1
  H  630  1  0.87693400  0.06646700  0.37081700  1
  H  633  1  0.86606100  0.01091500  0.36334900  1
  H  634  1  0.90723500  0.98838500  0.37648000  1
  H  635  1  0.90391100  0.99312200  0.34389400  1
  H  637  1  0.88634700  0.12504900  0.37222600  1
  H  639  1  0.01095900  0.00054800  0.34261100  1
  H  645  1  0.37684500  0.01710900  0.63185100  1
  H  648  1  0.36590500  0.07264300  0.63934600  1
  H  649  1  0.40701100  0.09520600  0.62617800  1
  H  650  1  0.40377100  0.09047600  0.65876600  1
  H  652  1  0.38632000  0.95853900  0.63043100  1
  H  654  1  0.51118500  0.08296600  0.65989400  1
  H  660  1  0.60600900  0.03669700  0.36441000  1
  H  663  1  0.62082400  0.08902100  0.37902900  1
  H  664  1  0.58663400  0.10333700  0.40214700  1
  H  665  1  0.57936200  0.11485000  0.37076700  1
  H  667  1  0.58313400  0.98626900  0.34127200  1
  H  669  1  0.47059700  0.09082500  0.40627000  1
  H  675  1  0.10594800  0.04695400  0.63829600  1
  H  678  1  0.12074700  0.99462800  0.62368200  1
  H  679  1  0.08658500  0.98032700  0.60054200  1
  H  680  1  0.07925200  0.96881600  0.63191900  1
  H  682  1  0.08309200  0.09737700  0.66142300  1
  H  684  1  0.97055800  0.99288900  0.59635600  1
  H  690  1  0.88024000  0.56269000  0.86816700  1
  H  693  1  0.87081700  0.50697400  0.86095500  1
  H  694  1  0.91151900  0.48512800  0.87522000  1
  H  695  1  0.91014600  0.48922600  0.84253300  1
  H  697  1  0.88833400  0.62137100  0.86880100  1
  H  699  1  0.01765200  0.49847600  0.84310200  1
  H  705  1  0.38004100  0.52091200  0.13449000  1
  H  708  1  0.37061200  0.57657000  0.14192800  1
  H  709  1  0.41121600  0.59849800  0.12764600  1
  H  710  1  0.41001900  0.59425400  0.16032600  1
  H  712  1  0.38811300  0.46227200  0.13353100  1
  H  714  1  0.51805100  0.58479600  0.15936600  1
  H  720  1  0.61369900  0.53610900  0.86892100  1
  H  723  1  0.62432800  0.58986500  0.88115200  1
  H  724  1  0.58712600  0.60451900  0.90244500  1
  H  725  1  0.58278300  0.61405300  0.87048000  1
  H  727  1  0.59906800  0.48226700  0.84969000  1
  H  729  1  0.47092300  0.58861200  0.90249800  1
  H  735  1  0.11368300  0.54752900  0.13384100  1
  H  738  1  0.12427300  0.49373200  0.12170900  1
  H  739  1  0.08710200  0.47905200  0.10040800  1
  H  740  1  0.08267700  0.46959700  0.13238400  1
  H  742  1  0.09913900  0.60143600  0.15294600  1
  H  744  1  0.97085200  0.49505000  0.10029900  1
  H  750  1  0.22346800  0.33269800  0.37818100  1
  H  753  1  0.28846800  0.34920100  0.36103400  1
  H  754  1  0.30050500  0.33074500  0.33252100  1
  H  755  1  0.32373100  0.31655300  0.36030000  1
  H  757  1  0.16448700  0.30982000  0.40276500  1
  H  759  1  0.29456800  0.25738400  0.31338000  1
  H  765  1  0.72349800  0.75091900  0.62452200  1
  H  768  1  0.78850000  0.73440100  0.64165500  1
  H  769  1  0.80059800  0.75287400  0.67015300  1
  H  770  1  0.82377700  0.76704200  0.64235200  1
  H  772  1  0.66449600  0.77379700  0.59996500  1
  H  774  1  0.79456600  0.82651100  0.68926800  1
  H  780  1  0.27260200  0.76085700  0.38165700  1
  H  783  1  0.20508900  0.74559700  0.36776100  1
  H  784  1  0.18826600  0.76532300  0.34064700  1
  H  785  1  0.17080700  0.77869700  0.37009900  1
  H  787  1  0.33431600  0.78372300  0.40393000  1
  H  789  1  0.19836100  0.84340600  0.32181300  1
  H  795  1  0.77260300  0.32278100  0.62114200  1
  H  798  1  0.70510100  0.33803800  0.63505500  1
  H  799  1  0.68825800  0.31825500  0.66213800  1
  H  800  1  0.67079500  0.30495800  0.63266400  1
  H  802  1  0.83421800  0.29989100  0.59878800  1
  H  804  1  0.69827900  0.24014100  0.68086200  1
  H  810  1  0.22115200  0.83357100  0.87771100  1
  H  813  1  0.28682500  0.84998800  0.86147600  1
  H  814  1  0.30093700  0.83046500  0.83372900  1
  H  815  1  0.32257800  0.81767200  0.86234700  1
  H  817  1  0.16010400  0.81177300  0.90090300  1
  H  819  1  0.29434700  0.75348200  0.81600700  1
  H  825  1  0.72101900  0.25011700  0.12499200  1
  H  828  1  0.78679200  0.23375900  0.14109700  1
  H  829  1  0.80103400  0.25325800  0.16883200  1
  H  830  1  0.82245500  0.26612700  0.14017600  1
  H  832  1  0.65974300  0.27173200  0.10202200  1
  H  834  1  0.79414600  0.33039600  0.18667300  1
  H  840  1  0.27889400  0.25769200  0.88352700  1
  H  843  1  0.21018900  0.24456200  0.87060800  1
  H  844  1  0.19304700  0.26542800  0.84407800  1
  H  845  1  0.17733000  0.27833800  0.87400200  1
  H  847  1  0.34572600  0.27495000  0.90234300  1
  H  849  1  0.20848800  0.34503300  0.82570800  1
  H  855  1  0.77880800  0.82587900  0.11915700  1
  H  858  1  0.71008900  0.83897200  0.13206500  1
  H  859  1  0.69296800  0.81811000  0.15860000  1
  H  860  1  0.67725900  0.80517700  0.12868100  1
  H  862  1  0.84566800  0.80866600  0.10035800  1
  H  864  1  0.70848500  0.73852800  0.17699600  1
  C  1  1  0.05715300  0.21474500  0.36983100  1
  C  2  1  0.04907600  0.22328900  0.34485500  1
  C  3  1  0.06596600  0.25153100  0.33425200  1
  C  4  1  0.09283500  0.27127600  0.34851200  1
  C  5  1  0.10200000  0.26298200  0.37325700  1
  C  6  1  0.08316700  0.23560100  0.38377200  1
  C  9  1  0.03732300  0.18778300  0.38171200  1
  C  10  1  0.99520600  0.17930600  0.37663300  1
  C  11  1  0.97497900  0.15402800  0.38931100  1
  C  12  1  0.99572900  0.13840700  0.40909500  1
  C  13  1  0.03769800  0.14644500  0.41460300  1
  C  14  1  0.05851000  0.16968500  0.40008800  1
  C  25  1  0.55717600  0.86890300  0.63287100  1
  C  26  1  0.54910100  0.86037100  0.65784900  1
  C  27  1  0.56600000  0.83214100  0.66846300  1
  C  28  1  0.59287600  0.81239100  0.65421200  1
  C  29  1  0.60204200  0.82067000  0.62946400  1
  C  30  1  0.58320000  0.84804300  0.61893800  1
  C  33  1  0.53733800  0.89585200  0.62098100  1
  C  34  1  0.49521700  0.90432100  0.62605400  1
  C  35  1  0.47498100  0.92958900  0.61336900  1
  C  36  1  0.49573100  0.94521000  0.59358300  1
  C  37  1  0.53770400  0.93718300  0.58808300  1
  C  38  1  0.55852000  0.91394700  0.60260200  1
  C  49  1  0.45500100  0.86586800  0.36795100  1
  C  50  1  0.46617200  0.85235700  0.34468500  1
  C  51  1  0.44501800  0.82564100  0.33444200  1
  C  52  1  0.41139500  0.81158300  0.34764100  1
  C  53  1  0.39960300  0.82419300  0.37086500  1
  C  54  1  0.42109300  0.85101500  0.38053800  1
  C  57  1  0.47849900  0.89204800  0.37902600  1
  C  58  1  0.50046600  0.91464200  0.36426100  1
  C  59  1  0.52547400  0.93919300  0.37452600  1
  C  60  1  0.52868600  0.94189800  0.40052400  1
  C  61  1  0.50626900  0.92064900  0.41609500  1
  C  62  1  0.48229100  0.89578900  0.40508500  1
  C  73  1  0.95500900  0.21780900  0.63473500  1
  C  74  1  0.96617100  0.23131900  0.65800400  1
  C  75  1  0.94499800  0.25802100  0.66824900  1
  C  76  1  0.91136500  0.27206900  0.65505400  1
  C  77  1  0.89958300  0.25946200  0.63182700  1
  C  78  1  0.92109500  0.23265100  0.62215000  1
  C  81  1  0.97852000  0.19163800  0.62366200  1
  C  82  1  0.00048000  0.16904000  0.63842900  1
  C  83  1  0.02549900  0.14449500  0.62816600  1
  C  84  1  0.02873400  0.14180000  0.60216700  1
  C  85  1  0.00632500  0.16305200  0.58659600  1
  C  86  1  0.98233400  0.18790500  0.59760200  1
  C  97  1  0.92918900  0.86651300  0.64531200  1
  C  98  1  0.95292800  0.85562200  0.66579400  1
  C  99  1  0.93430600  0.83680600  0.68469300  1
  C  100  1  0.89116700  0.82903600  0.68321700  1
  C  101  1  0.86668100  0.84039300  0.66325700  1
  C  102  1  0.88596200  0.85885400  0.64469500  1
  C  105  1  0.94736000  0.88394400  0.62513200  1
  C  106  1  0.97186400  0.91183300  0.62897900  1
  C  107  1  0.98282200  0.93236900  0.60914900  1
  C  108  1  0.97065800  0.92412300  0.58466800  1
  C  109  1  0.94672400  0.89607800  0.58043000  1
  C  110  1  0.93579400  0.87635200  0.60056100  1
  C  121  1  0.42912800  0.21712200  0.35732000  1
  C  122  1  0.45290200  0.22819400  0.33691100  1
  C  123  1  0.43428200  0.24710600  0.31806700  1
  C  124  1  0.39111200  0.25478200  0.31953100  1
  C  125  1  0.36658900  0.24321800  0.33940500  1
  C  126  1  0.38586900  0.22466800  0.35791500  1
  C  129  1  0.44732700  0.19970600  0.37749100  1
  C  130  1  0.47187500  0.17184000  0.37364200  1
  C  131  1  0.48288300  0.15132800  0.39347800  1
  C  132  1  0.47073800  0.15958500  0.41796100  1
  C  133  1  0.44676000  0.18761100  0.42219300  1
  C  134  1  0.43576400  0.20730500  0.40205900  1
  C  145  1  0.56472500  0.19968400  0.64581500  1
  C  146  1  0.54358600  0.21044600  0.66731300  1
  C  147  1  0.56179500  0.23352600  0.68318600  1
  C  148  1  0.60273800  0.24495700  0.67818600  1
  C  149  1  0.62508600  0.23346200  0.65734600  1
  C  150  1  0.60533200  0.21181600  0.64101700  1
  C  153  1  0.54555700  0.17772600  0.62895500  1
  C  154  1  0.52865200  0.14814000  0.63730100  1
  C  155  1  0.50936500  0.12653100  0.62064700  1
  C  156  1  0.50588000  0.13502000  0.59545400  1
  C  157  1  0.52335300  0.16399300  0.58660000  1
  C  158  1  0.54301600  0.18515700  0.60340600  1
  C  169  1  0.06480900  0.88394400  0.35684500  1
  C  170  1  0.04367100  0.87319000  0.33534500  1
  C  171  1  0.06187300  0.85010600  0.31947200  1
  C  172  1  0.10280700  0.83866200  0.32447500  1
  C  173  1  0.12515500  0.85014900  0.34531700  1
  C  174  1  0.10540900  0.87180000  0.36164600  1
  C  177  1  0.04565300  0.90590800  0.37370500  1
  C  178  1  0.02882200  0.93552100  0.36536300  1
  C  179  1  0.00957600  0.95714900  0.38201900  1
  C  180  1  0.00605900  0.94865300  0.40721000  1
  C  181  1  0.02344500  0.91964600  0.41605600  1
  C  182  1  0.04307200  0.89846600  0.39925000  1
  C  193  1  0.05664400  0.71373100  0.86884000  1
  C  194  1  0.05035400  0.72059100  0.84341100  1
  C  195  1  0.06777500  0.74824700  0.83212200  1
  C  196  1  0.09394100  0.76875900  0.84613800  1
  C  197  1  0.10059500  0.76251900  0.87151300  1
  C  198  1  0.08130100  0.73568800  0.88262000  1
  C  201  1  0.03667600  0.68703700  0.88095900  1
  C  202  1  0.99522500  0.67762800  0.87501200  1
  C  203  1  0.97506700  0.65210000  0.88742300  1
  C  204  1  0.99513100  0.63705600  0.90770700  1
  C  205  1  0.03644200  0.64601100  0.91405700  1
  C  206  1  0.05724100  0.66975500  0.90001700  1
  C  217  1  0.55639600  0.36995500  0.13380500  1
  C  218  1  0.54993500  0.36316000  0.15922400  1
  C  219  1  0.56715300  0.33548000  0.17059500  1
  C  220  1  0.59337200  0.31491800  0.15665100  1
  C  221  1  0.60027500  0.32112600  0.13129100  1
  C  222  1  0.58111600  0.34796200  0.12010800  1
  C  225  1  0.53650100  0.39663200  0.12162600  1
  C  226  1  0.49500400  0.40602500  0.12747900  1
  C  227  1  0.47492400  0.43156000  0.11503600  1
  C  228  1  0.49512000  0.44662000  0.09480500  1
  C  229  1  0.53647000  0.43767000  0.08854500  1
  C  230  1  0.55718600  0.41391200  0.10261600  1
  C  241  1  0.45278600  0.37012600  0.86855700  1
  C  242  1  0.45570300  0.36312100  0.84276600  1
  C  243  1  0.43666400  0.33610000  0.83157600  1
  C  244  1  0.40983800  0.31642800  0.84589400  1
  C  245  1  0.40501800  0.32274200  0.87134700  1
  C  246  1  0.42732000  0.34835200  0.88226500  1
  C  249  1  0.47645300  0.39614200  0.88051400  1
  C  250  1  0.50726800  0.41442400  0.86764400  1
  C  251  1  0.53151600  0.43874300  0.87883300  1
  C  252  1  0.52777100  0.44404700  0.90450800  1
  C  253  1  0.49789300  0.42671900  0.91838700  1
  C  254  1  0.47216000  0.40401000  0.90610000  1
  C  265  1  0.95277800  0.71351500  0.13411400  1
  C  266  1  0.95569900  0.72050700  0.15990900  1
  C  267  1  0.93665900  0.74752100  0.17110500  1
  C  268  1  0.90981700  0.76719100  0.15679400  1
  C  269  1  0.90499200  0.76088600  0.13134000  1
  C  270  1  0.92730900  0.73528900  0.12041300  1
  C  273  1  0.97644900  0.68750600  0.12214800  1
  C  274  1  0.00730300  0.66924700  0.13500500  1
  C  275  1  0.03154000  0.64492700  0.12381100  1
  C  276  1  0.02774800  0.63960300  0.09814200  1
  C  277  1  0.99784500  0.65691600  0.08427100  1
  C  278  1  0.97211200  0.67962100  0.09656700  1
  C  289  1  0.92982200  0.36708400  0.14474600  1
  C  290  1  0.95218900  0.35828300  0.16636400  1
  C  291  1  0.93314700  0.33972600  0.18526800  1
  C  292  1  0.89087200  0.32999000  0.18267900  1
  C  293  1  0.86760900  0.33916800  0.16159900  1
  C  294  1  0.88731200  0.35742200  0.14306900  1
  C  297  1  0.94823800  0.38540700  0.12500500  1
  C  298  1  0.97283000  0.41314500  0.12951400  1
  C  299  1  0.98442400  0.43424300  0.11016000  1
  C  300  1  0.97249100  0.42695500  0.08547800  1
  C  301  1  0.94858200  0.39912400  0.08051200  1
  C  302  1  0.93738000  0.37866500  0.10015000  1
  C  313  1  0.42996400  0.71659500  0.85799700  1
  C  314  1  0.45233400  0.72539600  0.83638000  1
  C  315  1  0.43328900  0.74394500  0.81747300  1
  C  316  1  0.39101100  0.75367200  0.82005800  1
  C  317  1  0.36774500  0.74448600  0.84113500  1
  C  318  1  0.38745200  0.72623500  0.85966600  1
  C  321  1  0.44837100  0.69827600  0.87774200  1
  C  322  1  0.47293700  0.67052400  0.87324200  1
  C  323  1  0.48449400  0.64942300  0.89260100  1
  C  324  1  0.47255200  0.65672400  0.91728000  1
  C  325  1  0.44867100  0.68457200  0.92223700  1
  C  326  1  0.43750700  0.70503600  0.90259500  1
  C  337  1  0.57101100  0.70184700  0.14590500  1
  C  338  1  0.55283300  0.71063100  0.16885400  1
  C  339  1  0.57342000  0.73182100  0.18537100  1
  C  340  1  0.61361700  0.74363000  0.17908700  1
  C  341  1  0.63282000  0.73463000  0.15650900  1
  C  342  1  0.61087500  0.71458000  0.13996000  1
  C  345  1  0.55032900  0.68044300  0.12915200  1
  C  346  1  0.53354900  0.65079200  0.13751200  1
  C  347  1  0.51327900  0.62947700  0.12104700  1
  C  348  1  0.50884100  0.63821800  0.09596900  1
  C  349  1  0.52628300  0.66715000  0.08702100  1
  C  350  1  0.54674800  0.68809000  0.10366200  1
  C  361  1  0.07102800  0.38167500  0.85682800  1
  C  362  1  0.05284700  0.37292000  0.83387500  1
  C  363  1  0.07342700  0.35173800  0.81734600  1
  C  364  1  0.11362100  0.33991600  0.82362500  1
  C  365  1  0.13282900  0.34889500  0.84620600  1
  C  366  1  0.11089000  0.36893300  0.86276700  1
  C  369  1  0.05037200  0.40308900  0.87358600  1
  C  370  1  0.03369800  0.43277900  0.86523700  1
  C  371  1  0.01350500  0.45412700  0.88171200  1
  C  372  1  0.00904500  0.44537700  0.90678800  1
  C  373  1  0.02636700  0.41639600  0.91572100  1
  C  374  1  0.04676100  0.39542500  0.89907100  1
  C  385  1  0.01082700  0.16468300  0.51941600  1
  C  386  1  0.02042700  0.18696200  0.50055600  1
  C  387  1  0.03633500  0.17639600  0.47744900  1
  C  388  1  0.04058900  0.14267000  0.47355900  1
  C  392  1  0.04947800  0.20078500  0.45895500  1
  C  396  1  0.99842400  0.17440400  0.54278400  1
  C  398  1  0.06266300  0.12758100  0.45462900  1
  C  400  1  0.51077500  0.91900400  0.48327100  1
  C  401  1  0.52039200  0.89671000  0.50212000  1
  C  402  1  0.53632300  0.90726400  0.52522500  1
  C  403  1  0.54057200  0.94098700  0.52913000  1
  C  407  1  0.54947100  0.88286400  0.54371200  1
  C  411  1  0.49834700  0.90929900  0.45990400  1
  C  413  1  0.56266000  0.95606200  0.54805900  1
  C  415  1  0.01135100  0.89422900  0.47950900  1
  C  416  1  0.01625200  0.86910200  0.49684900  1
  C  417  1  0.99039900  0.86771500  0.51814600  1
  C  418  1  0.96074400  0.89279500  0.52165500  1
  C  422  1  0.99310700  0.83986200  0.53528700  1
  C  426  1  0.03089900  0.89428200  0.45659400  1
  C  428  1  0.92604900  0.89027500  0.53664400  1
  C  430  1  0.51139200  0.18936900  0.52313600  1
  C  431  1  0.51635900  0.21448800  0.50579200  1
  C  432  1  0.49052900  0.21590200  0.48448600  1
  C  433  1  0.46080800  0.19086700  0.48097900  1
  C  437  1  0.49330500  0.24375400  0.46734700  1
  C  441  1  0.53091700  0.18931700  0.54605500  1
  C  443  1  0.42612300  0.19343400  0.46599200  1
  C  445  1  0.99624300  0.65904700  0.01745600  1
  C  446  1  0.00743400  0.68248500  0.99975900  1
  C  447  1  0.02667500  0.67344600  0.97716400  1
  C  448  1  0.03277400  0.64004500  0.97256400  1
  C  452  1  0.04158500  0.69899300  0.96009200  1
  C  456  1  0.98311700  0.66747300  0.04098000  1
  C  458  1  0.05838800  0.62670700  0.95447300  1
  C  460  1  0.49639800  0.42459600  0.98519900  1
  C  461  1  0.50754100  0.40115300  0.00290000  1
  C  462  1  0.52681200  0.41019500  0.02548500  1
  C  463  1  0.53293500  0.44359500  0.03007600  1
  C  467  1  0.54169300  0.38464800  0.04256500  1
  C  471  1  0.48321200  0.41616500  0.96169300  1
  C  473  1  0.55855500  0.45693100  0.04816200  1
  C  475  1  0.01305100  0.39253200  0.97947200  1
  C  476  1  0.01573200  0.36755500  0.99710200  1
  C  477  1  0.98992600  0.36801700  0.01845200  1
  C  478  1  0.96276200  0.39475900  0.02180300  1
  C  482  1  0.99005800  0.34037600  0.03586900  1
  C  486  1  0.03248100  0.39115000  0.95653800  1
  C  488  1  0.92780700  0.39440300  0.03670300  1
  C  490  1  0.51304000  0.69102400  0.02326900  1
  C  491  1  0.51574100  0.71603000  0.00566100  1
  C  492  1  0.49000600  0.71560200  0.98428200  1
  C  493  1  0.46278200  0.68889600  0.98096900  1
  C  497  1  0.49024400  0.74322900  0.96685300  1
  C  501  1  0.53248400  0.69236300  0.04619900  1
  C  503  1  0.42784600  0.68930900  0.96604000  1
  C  505  1  0.01667700  0.29607500  0.28510000  1
  C  506  1  0.99195300  0.32405500  0.28243200  1
  C  507  1  0.98195100  0.33619100  0.25874100  1
  C  508  1  0.99748100  0.31920500  0.23782900  1
  C  512  1  0.95678000  0.36618700  0.25652400  1
  C  516  1  0.02748200  0.28469400  0.30834200  1
  C  518  1  0.98993500  0.32789300  0.21356100  1
  C  520  1  0.51670000  0.78761600  0.71761700  1
  C  521  1  0.49194200  0.75965500  0.72028700  1
  C  522  1  0.48197500  0.74750400  0.74398000  1
  C  523  1  0.49756700  0.76445900  0.76489000  1
  C  527  1  0.45675600  0.71753000  0.74619800  1
  C  531  1  0.52748900  0.79900500  0.69437700  1
  C  533  1  0.49006200  0.75575700  0.78915800  1
  C  535  1  0.49092100  0.77554200  0.28702900  1
  C  536  1  0.51827700  0.74900700  0.28458800  1
  C  537  1  0.52999900  0.73744300  0.26095100  1
  C  538  1  0.51337900  0.75340800  0.23984400  1
  C  542  1  0.55793800  0.70892400  0.25893900  1
  C  546  1  0.47828600  0.78664700  0.31008000  1
  C  548  1  0.52047900  0.74441400  0.21552400  1
  C  550  1  0.99095700  0.30808400  0.71566300  1
  C  551  1  0.01837400  0.33458000  0.71811100  1
  C  552  1  0.03009600  0.34614200  0.74174800  1
  C  553  1  0.01339900  0.33021800  0.76285100  1
  C  557  1  0.05809500  0.37462300  0.74376200  1
  C  561  1  0.97832600  0.29698400  0.69261100  1
  C  563  1  0.02048700  0.33921200  0.78717300  1
  C  565  1  0.00410100  0.80033000  0.72899100  1
  C  566  1  0.03371600  0.77514600  0.73032000  1
  C  567  1  0.04204900  0.75966200  0.75313900  1
  C  568  1  0.02006700  0.77062500  0.77439900  1
  C  572  1  0.07176600  0.73217200  0.75419100  1
  C  576  1  0.99303100  0.81473800  0.70686600  1
  C  578  1  0.02350700  0.75799800  0.79791400  1
  C  580  1  0.50413200  0.28368400  0.27379500  1
  C  581  1  0.53524100  0.30778800  0.27249300  1
  C  582  1  0.54354800  0.32373500  0.24986100  1
  C  583  1  0.51998100  0.31433100  0.22875700  1
  C  587  1  0.57494000  0.35010500  0.24884800  1
  C  591  1  0.49322700  0.26883000  0.29577700  1
  C  593  1  0.52334000  0.32759200  0.20545400  1
  C  595  1  0.50520000  0.28062200  0.72812000  1
  C  596  1  0.48286800  0.30976200  0.73077200  1
  C  597  1  0.46593700  0.31897700  0.75396900  1
  C  598  1  0.47236400  0.29804400  0.77450800  1
  C  602  1  0.44237600  0.34972200  0.75590300  1
  C  606  1  0.52417700  0.27174900  0.70606000  1
  C  608  1  0.45954800  0.30240600  0.79892800  1
  C  610  1  0.00522300  0.80303000  0.27454900  1
  C  611  1  0.98277200  0.77393900  0.27192000  1
  C  612  1  0.96582300  0.76472400  0.24872600  1
  C  613  1  0.97237800  0.78559400  0.22816500  1
  C  617  1  0.94210500  0.73404500  0.24682000  1
  C  621  1  0.02420000  0.81190600  0.29660900  1
  C  623  1  0.95954700  0.78122500  0.20374900  1
  C  625  1  0.93405800  0.09225200  0.36965800  1
  C  626  1  0.90858000  0.06454900  0.36799900  1
  C  627  1  0.92647500  0.03409200  0.36310000  1
  C  628  1  0.97059500  0.03257200  0.35965200  1
  C  632  1  0.89930400  0.00508200  0.36164800  1
  C  636  1  0.91689000  0.12221300  0.37497500  1
  C  638  1  0.99287500  0.00435800  0.35725700  1
  C  640  1  0.43400000  0.99136400  0.63299100  1
  C  641  1  0.40849300  0.01905000  0.63465700  1
  C  642  1  0.42635400  0.04952000  0.63954900  1
  C  643  1  0.47047800  0.05107300  0.64298100  1
  C  647  1  0.39914300  0.07850600  0.64101900  1
  C  651  1  0.41686000  0.96139000  0.62768300  1
  C  653  1  0.49273500  0.07930000  0.64538600  1
  C  655  1  0.54860600  0.01150900  0.36636500  1
  C  656  1  0.57515300  0.03834600  0.36949100  1
  C  657  1  0.55937600  0.06746500  0.37933800  1
  C  658  1  0.51603900  0.06869400  0.38553200  1
  C  662  1  0.58822600  0.09514400  0.38300300  1
  C  666  1  0.56244400  0.98381100  0.35484800  1
  C  668  1  0.49468100  0.09493100  0.39500500  1
  C  670  1  0.04857100  0.07217500  0.63629900  1
  C  671  1  0.07509900  0.04532000  0.63319500  1
  C  672  1  0.05931500  0.01621000  0.62333700  1
  C  673  1  0.01598700  0.01500200  0.61711700  1
  C  677  1  0.08815200  0.98852000  0.61968900  1
  C  681  1  0.06241900  0.09985400  0.64783800  1
  C  683  1  0.99462600  0.98877500  0.60763100  1
  C  685  1  0.93686300  0.58914800  0.86778400  1
  C  686  1  0.91205800  0.56110300  0.86598000  1
  C  687  1  0.93080900  0.53078000  0.86175200  1
  C  688  1  0.97512600  0.52971800  0.85915000  1
  C  692  1  0.90424300  0.50146300  0.86003800  1
  C  696  1  0.91872900  0.61900200  0.87228100  1
  C  698  1  0.99805400  0.50173700  0.85713700  1
  C  700  1  0.43667000  0.49446100  0.13473500  1
  C  701  1  0.41186500  0.52249200  0.13665500  1
  C  702  1  0.43061600  0.55279500  0.14096000  1
  C  703  1  0.47494300  0.55385800  0.14351300  1
  C  707  1  0.40403400  0.58209100  0.14279800  1
  C  711  1  0.41853300  0.46463300  0.13012800  1
  C  713  1  0.49787400  0.58184100  0.14557800  1
  C  715  1  0.55730800  0.50950900  0.86922600  1
  C  716  1  0.58212500  0.53733600  0.87223500  1
  C  717  1  0.56387300  0.56671100  0.87993500  1
  C  718  1  0.51980900  0.56722300  0.88414700  1
  C  722  1  0.59112500  0.59530900  0.88370100  1
  C  726  1  0.57439500  0.48087700  0.86082000  1
  C  728  1  0.49636700  0.59317400  0.89242400  1
  C  730  1  0.05732500  0.57416800  0.13346600  1
  C  731  1  0.08211700  0.54631400  0.13050900  1
  C  732  1  0.06383900  0.51693200  0.12284600  1
  C  733  1  0.01978500  0.51643900  0.11860600  1
  C  737  1  0.09106800  0.48830500  0.11914200  1
  C  741  1  0.07444000  0.60280900  0.14183200  1
  C  743  1  0.99631500  0.49048600  0.11035700  1
  C  745  1  0.19201600  0.28846200  0.37282500  1
  C  746  1  0.22489900  0.31077700  0.36958000  1
  C  747  1  0.26025600  0.30273600  0.35511300  1
  C  748  1  0.26115200  0.27171600  0.34410300  1
  C  752  1  0.29510200  0.32618800  0.35213000  1
  C  756  1  0.15911000  0.29485300  0.38881700  1
  C  758  1  0.29531000  0.25979300  0.33163400  1
  C  760  1  0.69205300  0.79515500  0.62989600  1
  C  761  1  0.72493900  0.77284000  0.63312400  1
  C  762  1  0.76032000  0.78087800  0.64757500  1
  C  763  1  0.76123200  0.81189800  0.65858900  1
  C  767  1  0.79516200  0.75742100  0.65054400  1
  C  771  1  0.65913500  0.78877300  0.61391100  1
  C  773  1  0.79540600  0.82383000  0.67103700  1
  C  775  1  0.30501000  0.80420600  0.37436300  1
  C  776  1  0.27067500  0.78284100  0.37317000  1
  C  777  1  0.23326100  0.79190600  0.36105500  1
  C  778  1  0.23161000  0.82314700  0.35043900  1
  C  782  1  0.19744300  0.76905000  0.35987000  1
  C  786  1  0.33928300  0.79724400  0.38908000  1
  C  788  1  0.19656900  0.83591100  0.33923700  1
  C  790  1  0.80499500  0.27940800  0.62838600  1
  C  791  1  0.77066000  0.30077800  0.62959500  1
  C  792  1  0.73323700  0.29170100  0.64169800  1
  C  793  1  0.73155400  0.26043100  0.65226200  1
  C  797  1  0.69743600  0.31456900  0.64291000  1
  C  801  1  0.83922500  0.28637900  0.61363800  1
  C  803  1  0.69650200  0.24766000  0.66344200  1
  C  805  1  0.19038700  0.78901600  0.87253400  1
  C  806  1  0.22334700  0.81135500  0.86962800  1
  C  807  1  0.25969000  0.80303500  0.85612200  1
  C  808  1  0.26153900  0.77168100  0.84572600  1
  C  812  1  0.29435500  0.82667500  0.85331000  1
  C  816  1  0.15611100  0.79592200  0.88737700  1
  C  818  1  0.29611800  0.75955200  0.83373800  1
  C  820  1  0.69012900  0.29459600  0.13030200  1
  C  821  1  0.72317800  0.27231400  0.13311000  1
  C  822  1  0.75957100  0.28066300  0.14655900  1
  C  823  1  0.76137600  0.31199100  0.15701000  1
  C  827  1  0.79431500  0.25706900  0.14926900  1
  C  831  1  0.65579500  0.28764200  0.11551300  1
  C  833  1  0.79597000  0.32413900  0.16898200  1
  C  835  1  0.31288000  0.30036900  0.87642000  1
  C  836  1  0.27742200  0.28006200  0.87563800  1
  C  837  1  0.23985100  0.29041900  0.86428600  1
  C  838  1  0.23913300  0.32189100  0.85400900  1
  C  842  1  0.20314700  0.26840000  0.86322000  1
  C  846  1  0.34881500  0.29126800  0.88906300  1
  C  848  1  0.20491700  0.33553300  0.84245500  1
  C  850  1  0.81283800  0.78322300  0.12627300  1
  C  851  1  0.77735400  0.80350600  0.12704500  1
  C  852  1  0.73979500  0.79313500  0.13840000  1
  C  853  1  0.73910900  0.76166500  0.14868800  1
  C  857  1  0.70307000  0.81513500  0.13946000  1
  C  861  1  0.84876700  0.79234600  0.11363600  1
  C  863  1  0.70490300  0.74801400  0.16024500  1
  N  21  1  0.06008900  0.13024800  0.43099500  1
  N  22  1  0.93571000  0.14744600  0.38311200  1
  N  23  1  0.12199700  0.28292400  0.38827200  1
  N  24  1  0.05323400  0.26127500  0.31197900  1
  N  45  1  0.56009700  0.95338300  0.57169300  1
  N  46  1  0.43570500  0.93616100  0.61956100  1
  N  47  1  0.62203100  0.80071700  0.61445700  1
  N  48  1  0.55327200  0.82240200  0.69073600  1
  N  69  1  0.51088100  0.92444100  0.44051100  1
  N  70  1  0.55059600  0.95481400  0.35907100  1
  N  71  1  0.37722400  0.80690900  0.38661100  1
  N  72  1  0.45846700  0.81334300  0.31307900  1
  N  93  1  0.01095700  0.15926600  0.56218000  1
  N  94  1  0.05059500  0.12886100  0.64362400  1
  N  95  1  0.87717500  0.27672900  0.61608400  1
  N  96  1  0.95843400  0.27031900  0.68961600  1
  N  117  1  0.92411300  0.89145100  0.56026500  1
  N  118  1  0.00171800  0.95988300  0.61503300  1
  N  119  1  0.82818900  0.83037100  0.65830600  1
  N  120  1  0.95525000  0.82456800  0.70373600  1
  N  141  1  0.42418600  0.19225700  0.44237100  1
  N  142  1  0.50179100  0.12381900  0.38760100  1
  N  143  1  0.32805900  0.25315400  0.34436500  1
  N  144  1  0.45524200  0.25961100  0.29913300  1
  N  165  1  0.51682900  0.17056200  0.56296100  1
  N  166  1  0.49227800  0.09872800  0.62700800  1
  N  167  1  0.66252500  0.24457400  0.65092000  1
  N  168  1  0.54076000  0.24379800  0.70293000  1
  N  189  1  0.01687400  0.91306900  0.43969200  1
  N  190  1  0.99257100  0.98498500  0.37566800  1
  N  191  1  0.16258900  0.83902800  0.35175100  1
  N  192  1  0.04084000  0.83983800  0.29972500  1
  N  213  1  0.05846100  0.63026600  0.93086900  1
  N  214  1  0.93644300  0.64469600  0.88042700  1
  N  215  1  0.11925500  0.78356900  0.88625100  1
  N  216  1  0.05912500  0.75683200  0.80896900  1
  N  237  1  0.55858300  0.45339900  0.07176800  1
  N  238  1  0.43626300  0.43896100  0.12195800  1
  N  239  1  0.61894400  0.30000400  0.11662200  1
  N  240  1  0.55834800  0.32685400  0.19372800  1
  N  261  1  0.49886400  0.43079000  0.94287900  1
  N  262  1  0.56161900  0.45214600  0.86533300  1
  N  263  1  0.38631700  0.30190100  0.88627300  1
  N  264  1  0.44717400  0.32931200  0.80821300  1
  N  285  1  0.99876300  0.65281900  0.05977900  1
  N  286  1  0.06166700  0.63153800  0.13730100  1
  N  287  1  0.88627800  0.78172500  0.11642200  1
  N  288  1  0.94718200  0.75431200  0.19447000  1
  N  309  1  0.92568200  0.39582200  0.06031000  1
  N  310  1  0.00446900  0.46118500  0.11631600  1
  N  311  1  0.82952700  0.32842900  0.15637000  1
  N  312  1  0.95201300  0.33180300  0.20627600  1
  N  333  1  0.42575900  0.68790000  0.94243200  1
  N  334  1  0.50451100  0.62247000  0.88644900  1
  N  335  1  0.32964400  0.75518200  0.84636000  1
  N  336  1  0.45215000  0.75186900  0.79646300  1
  N  357  1  0.51959900  0.67350800  0.06336500  1
  N  358  1  0.49609100  0.60174900  0.12753400  1
  N  359  1  0.66944100  0.74634800  0.14906600  1
  N  360  1  0.55787800  0.74005700  0.20736000  1
  N  381  1  0.01966900  0.41003800  0.93937600  1
  N  382  1  0.99648100  0.48192800  0.87525400  1
  N  383  1  0.16945500  0.33717700  0.85364100  1
  N  384  1  0.05788600  0.34352100  0.79535400  1
  N  389  1  0.03045200  0.12304600  0.49281100  1
  N  391  1  0.01640200  0.13307100  0.51416200  1
  N  404  1  0.53041600  0.96062300  0.50988700  1
  N  406  1  0.51634900  0.95061300  0.48853700  1
  N  419  1  0.95824000  0.91621700  0.50427600  1
  N  421  1  0.98210200  0.91702500  0.48473200  1
  N  434  1  0.45824100  0.16745200  0.49836000  1
  N  436  1  0.48209000  0.16661700  0.51790800  1
  N  449  1  0.02080800  0.61920400  0.99064600  1
  N  451  1  0.00371900  0.62785100  0.01157200  1
  N  464  1  0.52096200  0.46443900  0.01199700  1
  N  466  1  0.50386200  0.45579400  0.99107300  1
  N  479  1  0.96243600  0.41789900  0.00412700  1
  N  481  1  0.98613500  0.41701700  0.98452100  1
  N  494  1  0.46234900  0.66572200  0.99860900  1
  N  496  1  0.48606400  0.66657600  0.01821300  1
  N  509  1  0.02144700  0.29267200  0.24191300  1
  N  511  1  0.03052700  0.28182000  0.26401000  1
  N  524  1  0.52156000  0.79097500  0.76080400  1
  N  526  1  0.53061300  0.80184000  0.73870700  1
  N  539  1  0.48692600  0.77855800  0.24377100  1
  N  541  1  0.47646000  0.78899200  0.26576900  1
  N  554  1  0.98688000  0.30510900  0.75892000  1
  N  556  1  0.97642100  0.29467500  0.73692300  1
  N  569  1  0.99205700  0.79494600  0.77151100  1
  N  571  1  0.98449300  0.80881800  0.75031200  1
  N  584  1  0.49060400  0.29097700  0.23159100  1
  N  586  1  0.48310600  0.27666400  0.25262500  1
  N  599  1  0.49408300  0.27042900  0.77012100  1
  N  601  1  0.50949000  0.26220000  0.74866700  1
  N  614  1  0.99421000  0.81316300  0.23252800  1
  N  616  1  0.00962400  0.82139700  0.25398000  1
  N  629  1  0.99292800  0.06032000  0.36111000  1
  N  631  1  0.97577800  0.08827000  0.36566000  1
  N  644  1  0.49283900  0.02333700  0.64152000  1
  N  646  1  0.47571700  0.99537500  0.63697900  1
  N  659  1  0.49287300  0.04159000  0.38203400  1
  N  661  1  0.50784800  0.01483500  0.37296100  1
  N  674  1  0.99283400  0.04211400  0.62060600  1
  N  676  1  0.00782000  0.06886200  0.62968600  1
  N  689  1  0.99678500  0.55778200  0.86067600  1
  N  691  1  0.97884900  0.58560900  0.86459300  1
  N  704  1  0.49660500  0.52580300  0.14188100  1
  N  706  1  0.47866600  0.49799300  0.13789500  1
  N  719  1  0.49837900  0.53925400  0.88081000  1
  N  721  1  0.51565400  0.51229600  0.87372100  1
  N  734  1  0.99837700  0.54442900  0.12190100  1
  N  736  1  0.01567400  0.57139300  0.12896000  1
  N  749  1  0.22831000  0.25157000  0.34801900  1
  N  751  1  0.19587600  0.25942600  0.36152400  1
  N  764  1  0.72837700  0.83204000  0.65469300  1
  N  766  1  0.69592600  0.82418600  0.64120000  1
  N  779  1  0.26619600  0.84214400  0.35206200  1
  N  781  1  0.30060400  0.83339300  0.36340800  1
  N  794  1  0.76612000  0.24141700  0.65060300  1
  N  796  1  0.80053600  0.25018400  0.63927600  1
  N  809  1  0.22852400  0.75156800  0.84923900  1
  N  811  1  0.19519000  0.75966700  0.86186100  1
  N  824  1  0.72825100  0.33203600  0.15361300  1
  N  826  1  0.69487300  0.32391100  0.14103800  1
  N  839  1  0.27469900  0.33982700  0.85526400  1
  N  841  1  0.30919100  0.32987200  0.86587300  1
  N  854  1  0.77469300  0.74375100  0.14743800  1
  N  856  1  0.80917800  0.75372500  0.13682900  1
  O  8  1  0.10886200  0.29874400  0.33848200  1
  O  15  1  0.97629200  0.11463000  0.42205400  1
  O  32  1  0.60890100  0.78492800  0.66425000  1
  O  39  1  0.47628700  0.96897700  0.58061900  1
  O  56  1  0.39295400  0.78420900  0.33911800  1
  O  63  1  0.55441600  0.96452100  0.41065000  1
  O  80  1  0.89290900  0.29943600  0.66357900  1
  O  87  1  0.05447700  0.11918400  0.59204300  1
  O  104  1  0.87351900  0.80947200  0.70057100  1
  O  111  1  0.97855800  0.94422100  0.56536000  1
  O  128  1  0.37346400  0.27445900  0.30225200  1
  O  135  1  0.47869400  0.13951000  0.43727600  1
  O  152  1  0.62051700  0.26693500  0.69365600  1
  O  159  1  0.48669700  0.11447500  0.57928000  1
  O  176  1  0.12058000  0.81667600  0.30901000  1
  O  183  1  0.98691500  0.96921500  0.42338500  1
  O  200  1  0.10906300  0.79651600  0.83608900  1
  O  207  1  0.97580000  0.61293300  0.92034400  1
  O  224  1  0.60835600  0.28714400  0.16674600  1
  O  231  1  0.47587000  0.47075800  0.08214200  1
  O  248  1  0.39109900  0.28998400  0.83592300  1
  O  255  1  0.55391700  0.46523900  0.91603800  1
  O  272  1  0.89106900  0.79362800  0.16677100  1
  O  279  1  0.05388000  0.61840100  0.08660700  1
  O  296  1  0.87257500  0.31142800  0.20044000  1
  O  303  1  0.98073500  0.44778200  0.06667700  1
  O  320  1  0.37271800  0.77222900  0.80229400  1
  O  327  1  0.48075900  0.63589700  0.93608600  1
  O  344  1  0.63378800  0.76404300  0.19482600  1
  O  351  1  0.48892500  0.61785000  0.07996800  1
  O  368  1  0.13379000  0.31952000  0.80787200  1
  O  375  1  0.98921500  0.46577800  0.92280100  1
