# generated using pymatgen
data_H9C18(NO)2
_symmetry_space_group_name_H-M   'P 1'
_cell_length_a   38.43300000
_cell_length_b   38.43300000
_cell_length_c   38.43300000
_cell_angle_alpha   90.00000000
_cell_angle_beta   90.00000000
_cell_angle_gamma   90.00000000
_symmetry_Int_Tables_number   1
_chemical_formula_structural   H9C18(NO)2
_chemical_formula_sum   'H432 C864 N96 O96'
_cell_volume   56769.21092874
_cell_formula_units_Z   48
loop_
 _symmetry_equiv_pos_site_id
 _symmetry_equiv_pos_as_xyz
  1  'x, y, z'
loop_
 _atom_site_type_symbol
 _atom_site_label
 _atom_site_symmetry_multiplicity
 _atom_site_fract_x
 _atom_site_fract_y
 _atom_site_fract_z
 _atom_site_occupancy
  H  9  1  0.35508800  0.32015200  0.15521700  1
  H  17  1  0.35508800  0.32016500  0.91726100  1
  H  19  1  0.29723900  0.38527800  0.00587700  1
  H  20  1  0.29723700  0.38527300  0.06660500  1
  H  21  1  0.42039400  0.26256300  0.00587500  1
  H  22  1  0.42038800  0.26255800  0.06659500  1
  H  31  1  0.72059600  0.68506700  0.15521800  1
  H  39  1  0.72060900  0.68507200  0.91725800  1
  H  41  1  0.77845800  0.61995600  0.00587600  1
  H  42  1  0.77845500  0.61995600  0.06660300  1
  H  43  1  0.65530100  0.74266300  0.00587500  1
  H  44  1  0.65529800  0.74266300  0.06659400  1
  H  53  1  0.72061200  0.32015700  0.91725500  1
  H  61  1  0.72061500  0.32015400  0.15521400  1
  H  63  1  0.77847100  0.38526500  0.06659800  1
  H  64  1  0.77846800  0.38526800  0.00586900  1
  H  65  1  0.65531400  0.26255800  0.06659300  1
  H  66  1  0.65531100  0.26256100  0.00587500  1
  H  75  1  0.35508300  0.68507200  0.91725500  1
  H  83  1  0.35509800  0.68507000  0.15521400  1
  H  85  1  0.29723100  0.61995900  0.06660100  1
  H  86  1  0.29722900  0.61995900  0.00587300  1
  H  87  1  0.42040100  0.74266100  0.06659100  1
  H  88  1  0.42040100  0.74265800  0.00587200  1
  H  97  1  0.15682800  0.31985200  0.35378200  1
  H  105  1  0.91887100  0.31985800  0.35378700  1
  H  107  1  0.00748500  0.26200600  0.41890500  1
  H  108  1  0.06821300  0.26200400  0.41890300  1
  H  109  1  0.00748900  0.38515600  0.29618300  1
  H  110  1  0.06820900  0.38515000  0.29618000  1
  H  119  1  0.15683200  0.68536400  0.71868700  1
  H  127  1  0.91887400  0.68537700  0.71868900  1
  H  129  1  0.00749100  0.74322300  0.65357100  1
  H  130  1  0.06821800  0.74322000  0.65357100  1
  H  131  1  0.00748900  0.62007100  0.77628500  1
  H  132  1  0.06820800  0.62006800  0.77628500  1
  H  141  1  0.91886600  0.68538400  0.35377400  1
  H  149  1  0.15682600  0.68537700  0.35377100  1
  H  151  1  0.06821200  0.74323800  0.41887900  1
  H  152  1  0.00748300  0.74323800  0.41888400  1
  H  153  1  0.06820300  0.62007600  0.29617800  1
  H  154  1  0.00748400  0.62007600  0.29618000  1
  H  163  1  0.91886900  0.31985500  0.71869700  1
  H  171  1  0.15682500  0.31986300  0.71869400  1
  H  173  1  0.06821200  0.26199900  0.65358400  1
  H  174  1  0.00748400  0.26199900  0.65358400  1
  H  175  1  0.06820300  0.38517100  0.77628300  1
  H  176  1  0.00748400  0.38517100  0.77628000  1
  H  185  1  0.35539000  0.12159600  0.35347500  1
  H  193  1  0.35539700  0.88363800  0.35347200  1
  H  195  1  0.42051300  0.97225700  0.29562100  1
  H  196  1  0.42050800  0.03298400  0.29562100  1
  H  197  1  0.29779600  0.97225500  0.41877500  1
  H  198  1  0.29779100  0.03297400  0.41877500  1
  H  207  1  0.72030000  0.12159500  0.71898600  1
  H  215  1  0.72030500  0.88363600  0.71899600  1
  H  217  1  0.65518600  0.97225200  0.77684700  1
  H  218  1  0.65518900  0.03298000  0.77684700  1
  H  219  1  0.77789900  0.97225500  0.65369000  1
  H  220  1  0.77789900  0.03297300  0.65369000  1
  H  229  1  0.35538700  0.88363300  0.71899900  1
  H  237  1  0.35538700  0.12159300  0.71900100  1
  H  239  1  0.42049500  0.03297500  0.77686000  1
  H  240  1  0.42049800  0.97224700  0.77685800  1
  H  241  1  0.29779300  0.03297300  0.65369800  1
  H  242  1  0.29779600  0.97225500  0.65369600  1
  H  251  1  0.72030500  0.88363600  0.35347500  1
  H  259  1  0.72031000  0.12159300  0.35348500  1
  H  261  1  0.65519900  0.03298300  0.29562100  1
  H  262  1  0.65519700  0.97225500  0.29561800  1
  H  263  1  0.77789300  0.03296800  0.41879300  1
  H  264  1  0.77789100  0.97225000  0.41879300  1
  H  273  1  0.85408000  0.81914200  0.65512400  1
  H  281  1  0.85408800  0.81915500  0.41735200  1
  H  283  1  0.79890400  0.88673700  0.50590600  1
  H  284  1  0.79890100  0.88673200  0.56657300  1
  H  285  1  0.92185600  0.76424400  0.50590600  1
  H  286  1  0.92185000  0.76423800  0.56656700  1
  H  295  1  0.22160900  0.18608700  0.65512900  1
  H  303  1  0.22162000  0.18608100  0.41735200  1
  H  305  1  0.27679800  0.11850100  0.50591100  1
  H  306  1  0.27679800  0.11850500  0.56657800  1
  H  307  1  0.15385000  0.24099000  0.50590600  1
  H  308  1  0.15385000  0.24099500  0.56656500  1
  H  317  1  0.22161800  0.81914400  0.41734200  1
  H  325  1  0.22161800  0.81914200  0.65511900  1
  H  327  1  0.27680900  0.88671600  0.56656500  1
  H  328  1  0.27680600  0.88671900  0.50589600  1
  H  329  1  0.15385700  0.76423300  0.56656000  1
  H  330  1  0.15385600  0.76423600  0.50590100  1
  H  339  1  0.85407800  0.18608400  0.41735500  1
  H  347  1  0.85408600  0.18609300  0.65512700  1
  H  349  1  0.79889100  0.11851200  0.56657800  1
  H  350  1  0.79889100  0.11850700  0.50591100  1
  H  351  1  0.92186300  0.24098100  0.56656500  1
  H  352  1  0.92186300  0.24097700  0.50590600  1
  H  361  1  0.65673500  0.81885000  0.85276400  1
  H  369  1  0.41896300  0.81885300  0.85277700  1
  H  371  1  0.50751700  0.76367100  0.92035900  1
  H  372  1  0.56818600  0.76366900  0.92035400  1
  H  373  1  0.50751400  0.88662000  0.79786600  1
  H  374  1  0.56817500  0.88661800  0.79786100  1
  H  383  1  0.65674200  0.18637000  0.21970200  1
  H  391  1  0.41896800  0.18638100  0.21970200  1
  H  393  1  0.50752200  0.24156100  0.15212000  1
  H  394  1  0.56819100  0.24156100  0.15212300  1
  H  395  1  0.50752200  0.11861000  0.27460800  1
  H  396  1  0.56818300  0.11860800  0.27460800  1
  H  405  1  0.41896000  0.18638300  0.85276400  1
  H  413  1  0.65673500  0.18638500  0.85276100  1
  H  415  1  0.56818100  0.24157700  0.92033600  1
  H  416  1  0.50751100  0.24157400  0.92034100  1
  H  417  1  0.56817800  0.11862100  0.79785800  1
  H  418  1  0.50751700  0.11861800  0.79786100  1
  H  427  1  0.41896300  0.81884500  0.21970300  1
  H  435  1  0.65673500  0.81885600  0.21971200  1
  H  437  1  0.56818800  0.76365800  0.15213200  1
  H  438  1  0.50751900  0.76365600  0.15212700  1
  H  439  1  0.56817300  0.88663300  0.27459700  1
  H  440  1  0.50751100  0.88663100  0.27459500  1
  H  449  1  0.85437500  0.62150700  0.85246500  1
  H  457  1  0.85438500  0.38373500  0.85247500  1
  H  459  1  0.92196700  0.47228600  0.79729100  1
  H  460  1  0.92196500  0.53295600  0.79728600  1
  H  461  1  0.79947600  0.47228900  0.92024000  1
  H  462  1  0.79947100  0.53295000  0.92023500  1
  H  471  1  0.22131900  0.62150200  0.21999600  1
  H  479  1  0.22131400  0.38372700  0.22000500  1
  H  481  1  0.15373400  0.47228400  0.27518500  1
  H  482  1  0.15373700  0.53295300  0.27518500  1
  H  483  1  0.27622100  0.47228100  0.15223500  1
  H  484  1  0.27622600  0.53294000  0.15223600  1
  H  493  1  0.85438000  0.38372500  0.22000500  1
  H  501  1  0.85437700  0.62150200  0.22000200  1
  H  503  1  0.92195400  0.53294800  0.27519300  1
  H  504  1  0.92195700  0.47227900  0.27519000  1
  H  505  1  0.79946900  0.53294300  0.15224100  1
  H  506  1  0.79947100  0.47228100  0.15224000  1
  H  515  1  0.22131700  0.38373000  0.85247000  1
  H  523  1  0.22132000  0.62150200  0.85247800  1
  H  525  1  0.15373900  0.53295300  0.79728300  1
  H  526  1  0.15373700  0.47228400  0.79728300  1
  H  527  1  0.27621000  0.53294300  0.92025300  1
  H  528  1  0.27620800  0.47228100  0.92025300  1
  H  542  1  0.34610600  0.16355900  0.98580300  1
  H  543  1  0.38468000  0.13898400  0.97927500  1
  H  544  1  0.35267800  0.14114600  0.94596800  1
  H  546  1  0.49478800  0.34273600  0.85237600  1
  H  547  1  0.48794200  0.36516200  0.89217800  1
  H  548  1  0.45603200  0.36707700  0.85876700  1
  H  562  1  0.72962500  0.84167700  0.98578500  1
  H  563  1  0.69105100  0.86625500  0.97926400  1
  H  564  1  0.72304500  0.86409000  0.94595200  1
  H  566  1  0.58094800  0.66251100  0.85233200  1
  H  567  1  0.58778100  0.64005900  0.89212300  1
  H  568  1  0.61971700  0.63819100  0.85873300  1
  H  582  1  0.72963800  0.16354300  0.08669900  1
  H  583  1  0.69106700  0.13896100  0.09322200  1
  H  584  1  0.72305800  0.14113600  0.12653700  1
  H  586  1  0.58093300  0.34271800  0.22010400  1
  H  587  1  0.58778300  0.36515200  0.18030600  1
  H  588  1  0.61969400  0.36705400  0.21372000  1
  H  602  1  0.34606700  0.84165900  0.08669100  1
  H  603  1  0.38463500  0.86624500  0.09321000  1
  H  604  1  0.35264500  0.86407200  0.12652600  1
  H  606  1  0.49475400  0.66251100  0.22015400  1
  H  607  1  0.48792700  0.64005600  0.18036400  1
  H  608  1  0.45599100  0.63818800  0.21375100  1
  H  622  1  0.98741100  0.31086300  0.19718200  1
  H  623  1  0.98088300  0.34943400  0.17260400  1
  H  624  1  0.94757300  0.31743500  0.17477100  1
  H  626  1  0.85399700  0.45956300  0.37635600  1
  H  627  1  0.89379900  0.45271700  0.39878200  1
  H  628  1  0.86038800  0.42081000  0.40070000  1
  H  642  1  0.98739000  0.69440000  0.87529400  1
  H  643  1  0.98087000  0.65582900  0.89987400  1
  H  644  1  0.94755500  0.68782200  0.89770400  1
  H  646  1  0.85394800  0.54571600  0.69612800  1
  H  647  1  0.89373900  0.55254600  0.67367800  1
  H  648  1  0.86035100  0.58448200  0.67180500  1
  H  662  1  0.08830400  0.69438500  0.19716000  1
  H  663  1  0.09483000  0.65581400  0.17258000  1
  H  664  1  0.12814200  0.68780900  0.17475200  1
  H  666  1  0.22172000  0.54570200  0.37634300  1
  H  667  1  0.18192200  0.55255300  0.39877700  1
  H  668  1  0.21533400  0.58446300  0.40067600  1
  H  682  1  0.08829600  0.31083700  0.87528400  1
  H  683  1  0.09481700  0.34940800  0.89986900  1
  H  684  1  0.12813100  0.31741400  0.89769700  1
  H  686  1  0.22177100  0.45951600  0.69613600  1
  H  687  1  0.18198000  0.45269100  0.67368100  1
  H  688  1  0.21536700  0.42075300  0.67181300  1
  H  702  1  0.19879400  0.95217600  0.34448500  1
  H  703  1  0.17421700  0.94564800  0.38305600  1
  H  704  1  0.17638300  0.91234000  0.35105700  1
  H  706  1  0.37797200  0.81875900  0.49317700  1
  H  707  1  0.40039800  0.85856400  0.48633200  1
  H  708  1  0.40231500  0.82515200  0.45442200  1
  H  722  1  0.87691000  0.95215800  0.72801700  1
  H  723  1  0.90149000  0.94563700  0.68944600  1
  H  724  1  0.89932000  0.91232200  0.72143900  1
  H  726  1  0.69774400  0.81871500  0.57933500  1
  H  727  1  0.67529200  0.85850600  0.58616800  1
  H  728  1  0.67342100  0.82511600  0.61810100  1
  H  742  1  0.19877500  0.05307100  0.72801200  1
  H  743  1  0.17419500  0.05959800  0.68944100  1
  H  744  1  0.17636700  0.09290900  0.72143400  1
  H  746  1  0.37795600  0.18648900  0.57932500  1
  H  747  1  0.40039000  0.14669100  0.58617600  1
  H  748  1  0.40228900  0.18010300  0.61808600  1
  H  762  1  0.87689700  0.05306200  0.34446700  1
  H  763  1  0.90148200  0.05958400  0.38303500  1
  H  764  1  0.89931000  0.09289700  0.35104200  1
  H  766  1  0.69774600  0.18653900  0.49313600  1
  H  767  1  0.67529200  0.14674800  0.48631100  1
  H  768  1  0.67342300  0.18013300  0.45437200  1
  H  782  1  0.19839100  0.31096400  0.08680900  1
  H  783  1  0.17376100  0.34948100  0.09346300  1
  H  784  1  0.17603800  0.31741400  0.12669900  1
  H  786  1  0.37752700  0.45972700  0.22020200  1
  H  787  1  0.39990100  0.45299800  0.18034900  1
  H  788  1  0.40193600  0.42103100  0.21370000  1
  H  802  1  0.87730300  0.69427500  0.08683000  1
  H  803  1  0.90193500  0.65576100  0.09349200  1
  H  804  1  0.89964800  0.68783000  0.12672400  1
  H  806  1  0.69815500  0.54555400  0.22025400  1
  H  807  1  0.67576300  0.55226700  0.18041000  1
  H  808  1  0.67377200  0.58426300  0.21373400  1
  H  822  1  0.19839400  0.69429600  0.98565000  1
  H  823  1  0.17375800  0.65578200  0.97900700  1
  H  824  1  0.17604400  0.68783800  0.94575900  1
  H  826  1  0.37751400  0.54548400  0.85228800  1
  H  827  1  0.39988800  0.55221500  0.89213900  1
  H  828  1  0.40192500  0.58417700  0.85878200  1
  H  842  1  0.87732600  0.31095900  0.98565500  1
  H  843  1  0.90195100  0.34948100  0.97900900  1
  H  844  1  0.89967900  0.31742200  0.94576700  1
  H  846  1  0.69817000  0.45969600  0.85225700  1
  H  847  1  0.67578100  0.45297500  0.89210000  1
  H  848  1  0.67378500  0.42098700  0.85876900  1
  H  862  1  0.34618900  0.95203800  0.87571600  1
  H  863  1  0.38471300  0.94539500  0.90034000  1
  H  864  1  0.35265500  0.91215000  0.89806900  1
  H  866  1  0.49496700  0.81868100  0.69656500  1
  H  867  1  0.48823100  0.85853200  0.67419600  1
  H  868  1  0.45627200  0.82517600  0.67215900  1
  H  882  1  0.72953700  0.95202200  0.19678500  1
  H  883  1  0.69102300  0.94537400  0.17214900  1
  H  884  1  0.72307900  0.91213200  0.17443600  1
  H  886  1  0.58075600  0.81862400  0.37590600  1
  H  887  1  0.58746900  0.85846700  0.39830100  1
  H  888  1  0.61945900  0.82513900  0.40029900  1
  H  902  1  0.72949800  0.05320300  0.87570000  1
  H  903  1  0.69098400  0.05986500  0.90033000  1
  H  904  1  0.72305300  0.09309700  0.89804300  1
  H  906  1  0.58075300  0.18658700  0.69654200  1
  H  907  1  0.58748400  0.14673400  0.67417000  1
  H  908  1  0.61945200  0.18008200  0.67214100  1
  H  922  1  0.34619400  0.05319700  0.19677800  1
  H  923  1  0.38471300  0.05985200  0.17214800  1
  H  924  1  0.35264700  0.09308800  0.17442700  1
  H  926  1  0.49492600  0.18662000  0.37591900  1
  H  927  1  0.48821300  0.14677500  0.39831100  1
  H  928  1  0.45622000  0.18010200  0.40030700  1
  H  942  1  0.98726000  0.16316400  0.72792100  1
  H  943  1  0.98061500  0.13852800  0.68940400  1
  H  944  1  0.94737000  0.14081400  0.72146000  1
  H  946  1  0.85389800  0.34228600  0.57910900  1
  H  947  1  0.89374900  0.36466000  0.58584000  1
  H  948  1  0.86039500  0.36669800  0.61780200  1
  H  962  1  0.98726800  0.84209900  0.34457600  1
  H  963  1  0.98062300  0.86672100  0.38310000  1
  H  964  1  0.94738000  0.86444900  0.35104200  1
  H  966  1  0.85387000  0.66294000  0.49331000  1
  H  967  1  0.89371300  0.64055100  0.48659200  1
  H  968  1  0.86038200  0.63855500  0.45460400  1
  H  982  1  0.08842600  0.16316000  0.34458600  1
  H  983  1  0.09508400  0.13852700  0.38310300  1
  H  984  1  0.12831800  0.14081100  0.35103400  1
  H  986  1  0.22182500  0.34229700  0.49334600  1
  H  987  1  0.18197100  0.36466800  0.48662100  1
  H  988  1  0.21531900  0.36670300  0.45465100  1
  H  1002  1  0.08844200  0.84207000  0.72788700  1
  H  1003  1  0.09510500  0.86670200  0.68937300  1
  H  1004  1  0.12833600  0.86441500  0.72144500  1
  H  1006  1  0.22187000  0.66291700  0.57917600  1
  H  1007  1  0.18202500  0.64052500  0.58588700  1
  H  1008  1  0.21534900  0.63853400  0.61788500  1
  H  1022  1  0.72960900  0.84167200  0.08667800  1
  H  1023  1  0.69103800  0.86625200  0.09320300  1
  H  1024  1  0.72303400  0.86408500  0.12651400  1
  H  1026  1  0.58091200  0.66251100  0.22011600  1
  H  1027  1  0.58775500  0.64008000  0.18031500  1
  H  1028  1  0.61966800  0.63817000  0.21372500  1
  H  1042  1  0.34607000  0.16355600  0.08669500  1
  H  1043  1  0.38464100  0.13897400  0.09321500  1
  H  1044  1  0.35265000  0.14114500  0.12653000  1
  H  1046  1  0.49474900  0.34272100  0.22014400  1
  H  1047  1  0.48791600  0.36517300  0.18035500  1
  H  1048  1  0.45598300  0.36703800  0.21374500  1
  H  1062  1  0.34607700  0.84166400  0.98580300  1
  H  1063  1  0.38464800  0.86624500  0.97929000  1
  H  1064  1  0.35266000  0.86408200  0.94597300  1
  H  1066  1  0.49480400  0.66252100  0.85237600  1
  H  1067  1  0.48795500  0.64008700  0.89217500  1
  H  1068  1  0.45605000  0.63817500  0.85875600  1
  H  1082  1  0.72962000  0.16354800  0.98576400  1
  H  1083  1  0.69104900  0.13896800  0.97923300  1
  H  1084  1  0.72304500  0.14114400  0.94592300  1
  H  1086  1  0.58097400  0.34274200  0.85231900  1
  H  1087  1  0.58780400  0.36519100  0.89211000  1
  H  1088  1  0.61974300  0.36705400  0.85872200  1
  H  1102  1  0.08829000  0.69437900  0.87529400  1
  H  1103  1  0.09481100  0.65580600  0.89987400  1
  H  1104  1  0.12812400  0.68779900  0.89771000  1
  H  1106  1  0.22171200  0.54566900  0.69613600  1
  H  1107  1  0.18191200  0.55251400  0.67370400  1
  H  1108  1  0.21532600  0.58442200  0.67179200  1
  H  1122  1  0.08831900  0.31082100  0.19718300  1
  H  1123  1  0.09483700  0.34939000  0.17259900  1
  H  1124  1  0.12815500  0.31740100  0.17477400  1
  H  1126  1  0.22175200  0.45951600  0.37634600  1
  H  1127  1  0.18196200  0.45268400  0.39879800  1
  H  1128  1  0.21535300  0.42075000  0.40066600  1
  H  1142  1  0.98742200  0.31085500  0.87528900  1
  H  1143  1  0.98090600  0.34942900  0.89986700  1
  H  1144  1  0.94759100  0.31743500  0.89771000  1
  H  1146  1  0.85398400  0.45957100  0.69614300  1
  H  1147  1  0.89378300  0.45272000  0.67371000  1
  H  1148  1  0.86036700  0.42081500  0.67180000  1
  H  1162  1  0.98738800  0.69437700  0.19716200  1
  H  1163  1  0.98085900  0.65580300  0.17258700  1
  H  1164  1  0.94755000  0.68780200  0.17475400  1
  H  1166  1  0.85393500  0.54573900  0.37635900  1
  H  1167  1  0.89372600  0.55257400  0.39880800  1
  H  1168  1  0.86033800  0.58451000  0.40067100  1
  H  1182  1  0.87690500  0.05306500  0.72800400  1
  H  1183  1  0.90148800  0.05959000  0.68943600  1
  H  1184  1  0.89931500  0.09290200  0.72142900  1
  H  1186  1  0.69774100  0.18648900  0.57930100  1
  H  1187  1  0.67531200  0.14668700  0.58614400  1
  H  1188  1  0.67340000  0.18009700  0.61805400  1
  H  1202  1  0.19879300  0.05308400  0.34445100  1
  H  1203  1  0.17421000  0.05960300  0.38302000  1
  H  1204  1  0.17638400  0.09292000  0.35103100  1
  H  1206  1  0.37795900  0.18651700  0.49314100  1
  H  1207  1  0.40041100  0.14672700  0.48630600  1
  H  1208  1  0.40227900  0.18011800  0.45437200  1
  H  1222  1  0.87689700  0.95218900  0.34447200  1
  H  1223  1  0.90147700  0.94567400  0.38304600  1
  H  1224  1  0.89932000  0.91235800  0.35105500  1
  H  1226  1  0.69775400  0.81875100  0.49319000  1
  H  1227  1  0.67532000  0.85854800  0.48633900  1
  H  1228  1  0.67341000  0.82513100  0.45443500  1
  H  1242  1  0.19877900  0.95214700  0.72799600  1
  H  1243  1  0.17420100  0.94561400  0.68942500  1
  H  1244  1  0.17637400  0.91230600  0.72142400  1
  H  1246  1  0.37797700  0.81869400  0.57936400  1
  H  1247  1  0.40042600  0.85848600  0.58619600  1
  H  1248  1  0.40228900  0.82510000  0.61813500  1
  H  1262  1  0.87730800  0.69427500  0.98566000  1
  H  1263  1  0.90194000  0.65575900  0.97900400  1
  H  1264  1  0.89965800  0.68782500  0.94576700  1
  H  1266  1  0.69817000  0.54551300  0.85226700  1
  H  1267  1  0.67579600  0.55224100  0.89212100  1
  H  1268  1  0.67376400  0.58420800  0.85877200  1
  H  1282  1  0.19839400  0.31094600  0.98566000  1
  H  1283  1  0.17376100  0.34946200  0.97900900  1
  H  1284  1  0.17604200  0.31739900  0.94577000  1
  H  1286  1  0.37751600  0.45970900  0.85224600  1
  H  1287  1  0.39990600  0.45300100  0.89209200  1
  H  1288  1  0.40191200  0.42101000  0.85876700  1
  H  1302  1  0.87732900  0.31094900  0.08683600  1
  H  1303  1  0.90195900  0.34946500  0.09349200  1
  H  1304  1  0.89966900  0.31740400  0.12673100  1
  H  1306  1  0.69816000  0.45970100  0.22019700  1
  H  1307  1  0.67578900  0.45296700  0.18034400  1
  H  1308  1  0.67376200  0.42100000  0.21369300  1
  H  1322  1  0.19839700  0.69427500  0.08682200  1
  H  1323  1  0.17376400  0.65576100  0.09347900  1
  H  1324  1  0.17604800  0.68782800  0.12671400  1
  H  1326  1  0.37753700  0.54553600  0.22023300  1
  H  1327  1  0.39992700  0.55224600  0.18038700  1
  H  1328  1  0.40192500  0.58424000  0.21371400  1
  H  1342  1  0.72951100  0.05318600  0.19678100  1
  H  1343  1  0.69099200  0.05983500  0.17215100  1
  H  1344  1  0.72305500  0.09307400  0.17442800  1
  H  1346  1  0.58072400  0.18655800  0.37591400  1
  H  1347  1  0.58745600  0.14670500  0.39828500  1
  H  1348  1  0.61941800  0.18006000  0.40032500  1
  H  1362  1  0.34617400  0.05322200  0.87571000  1
  H  1363  1  0.38469000  0.05988000  0.90034300  1
  H  1364  1  0.35262600  0.09311800  0.89805000  1
  H  1366  1  0.49489700  0.18661900  0.69654400  1
  H  1367  1  0.48818400  0.14677400  0.67415500  1
  H  1368  1  0.45618800  0.18009800  0.67216400  1
  H  1382  1  0.34618900  0.95204600  0.19677700  1
  H  1383  1  0.38470600  0.94539500  0.17214500  1
  H  1384  1  0.35264200  0.91215600  0.17442500  1
  H  1386  1  0.49498100  0.81866600  0.37590300  1
  H  1387  1  0.48825500  0.85851900  0.39827200  1
  H  1388  1  0.45629000  0.82517000  0.40031700  1
  H  1402  1  0.72950500  0.95203800  0.87569700  1
  H  1403  1  0.69098600  0.94538500  0.90032700  1
  H  1404  1  0.72305300  0.91214800  0.89804800  1
  H  1406  1  0.58077600  0.81861100  0.69655500  1
  H  1407  1  0.58748700  0.85845700  0.67416200  1
  H  1408  1  0.61948300  0.82512900  0.67216900  1
  H  1422  1  0.08845100  0.84209300  0.34456600  1
  H  1423  1  0.09510900  0.86672300  0.38308200  1
  H  1424  1  0.12834700  0.86443100  0.35102100  1
  H  1426  1  0.22180900  0.66292200  0.49331800  1
  H  1427  1  0.18195600  0.64055300  0.48658700  1
  H  1428  1  0.21530600  0.63852400  0.45461900  1
  H  1442  1  0.08843500  0.16316300  0.72790000  1
  H  1443  1  0.09509200  0.13853100  0.68938600  1
  H  1444  1  0.12832700  0.14081500  0.72145200  1
  H  1446  1  0.22184600  0.34230500  0.57916100  1
  H  1447  1  0.18200000  0.36469700  0.58587400  1
  H  1448  1  0.21532600  0.36669500  0.61786700  1
  H  1462  1  0.98727600  0.84207500  0.72789200  1
  H  1463  1  0.98062000  0.86670800  0.68937600  1
  H  1464  1  0.94738300  0.86442300  0.72144200  1
  H  1466  1  0.85388000  0.66293800  0.57912900  1
  H  1467  1  0.89373400  0.64056400  0.58585800  1
  H  1468  1  0.86038500  0.63853200  0.61782500  1
  H  1482  1  0.98727100  0.16316100  0.34457300  1
  H  1483  1  0.98062000  0.13852900  0.38309000  1
  H  1484  1  0.94738000  0.14080900  0.35102600  1
  H  1486  1  0.85385400  0.34228600  0.49333100  1
  H  1487  1  0.89370300  0.36467600  0.48662300  1
  H  1488  1  0.86037500  0.36668200  0.45463000  1
  C  1  1  0.35579600  0.32089100  0.05493700  1
  C  2  1  0.33327600  0.34377500  0.07371300  1
  C  3  1  0.33306500  0.34365200  0.11082000  1
  C  4  1  0.35575100  0.32082800  0.12852200  1
  C  5  1  0.37863000  0.29821200  0.11081000  1
  C  6  1  0.37875500  0.29844400  0.07370500  1
  C  7  1  0.31249900  0.36721800  0.05444400  1
  C  8  1  0.40227600  0.27775300  0.05443700  1
  C  10  1  0.35579600  0.32089300  0.01753900  1
  C  11  1  0.33327300  0.34377500  0.99876600  1
  C  12  1  0.33306500  0.34365800  0.96166000  1
  C  13  1  0.35575400  0.32084100  0.94395400  1
  C  14  1  0.37863300  0.29822000  0.96166500  1
  C  15  1  0.37875800  0.29844900  0.99876900  1
  C  16  1  0.31248600  0.36721000  0.01803700  1
  C  18  1  0.40227600  0.27775800  0.01803400  1
  C  23  1  0.71990700  0.68434600  0.05493700  1
  C  24  1  0.74242900  0.66146500  0.07371300  1
  C  25  1  0.74262900  0.66157900  0.11082000  1
  C  26  1  0.71994800  0.68440900  0.12852200  1
  C  27  1  0.69706200  0.70701700  0.11081000  1
  C  28  1  0.69694500  0.70679300  0.07370600  1
  C  29  1  0.76320300  0.63802200  0.05444200  1
  C  30  1  0.67342100  0.72747600  0.05443700  1
  C  32  1  0.71990700  0.68434600  0.01753900  1
  C  33  1  0.74242700  0.66146200  0.99876600  1
  C  34  1  0.74263700  0.66158200  0.96165700  1
  C  35  1  0.71995900  0.68441100  0.94395400  1
  C  36  1  0.69707200  0.70701900  0.96166500  1
  C  37  1  0.69694700  0.70679100  0.99876900  1
  C  38  1  0.76319800  0.63801600  0.01803600  1
  C  40  1  0.67343100  0.72748600  0.01803400  1
  C  45  1  0.71992200  0.32087200  0.01753400  1
  C  46  1  0.74244200  0.34375600  0.99876100  1
  C  47  1  0.74265000  0.34363700  0.96165200  1
  C  48  1  0.71995900  0.32082000  0.94394800  1
  C  49  1  0.69707800  0.29820400  0.96166000  1
  C  50  1  0.69696300  0.29842600  0.99876600  1
  C  51  1  0.76322100  0.36719700  0.01803000  1
  C  52  1  0.67343900  0.27774000  0.01803300  1
  C  54  1  0.71992500  0.32087000  0.05493200  1
  C  55  1  0.74244700  0.34375100  0.07370800  1
  C  56  1  0.74265300  0.34363200  0.11081500  1
  C  57  1  0.71996900  0.32081000  0.12851800  1
  C  58  1  0.69708500  0.29819900  0.11080700  1
  C  59  1  0.69696800  0.29842000  0.07370300  1
  C  60  1  0.76322400  0.36719500  0.05443700  1
  C  62  1  0.67344400  0.27773200  0.05443500  1
  C  67  1  0.35580100  0.68433300  0.01753500  1
  C  68  1  0.33327600  0.66145200  0.99876300  1
  C  69  1  0.33306500  0.66157400  0.96165500  1
  C  70  1  0.35575100  0.68439600  0.94395100  1
  C  71  1  0.37863500  0.70700600  0.96166200  1
  C  72  1  0.37875800  0.70678000  0.99876600  1
  C  73  1  0.31250200  0.63800900  0.01803300  1
  C  74  1  0.40227900  0.72747300  0.01803100  1
  C  76  1  0.35580100  0.68433600  0.05493300  1
  C  77  1  0.33327800  0.66145500  0.07371000  1
  C  78  1  0.33307000  0.66157700  0.11081700  1
  C  79  1  0.35575400  0.68440100  0.12851900  1
  C  80  1  0.37864300  0.70700600  0.11080600  1
  C  81  1  0.37876000  0.70678300  0.07370200  1
  C  82  1  0.31250200  0.63800900  0.05444000  1
  C  84  1  0.40228400  0.72746800  0.05443300  1
  C  89  1  0.05654800  0.32056000  0.35451500  1
  C  90  1  0.07532300  0.29804100  0.37739900  1
  C  91  1  0.11243000  0.29783200  0.37728000  1
  C  92  1  0.13013400  0.32051600  0.35445800  1
  C  93  1  0.11242200  0.34339200  0.33183700  1
  C  94  1  0.07531800  0.34352000  0.33206900  1
  C  95  1  0.05605200  0.27726700  0.40084500  1
  C  96  1  0.05605000  0.36703800  0.31137500  1
  C  98  1  0.01915000  0.32056300  0.35451800  1
  C  99  1  0.00037700  0.29803800  0.37739900  1
  C  100  1  0.96326800  0.29783200  0.37728200  1
  C  101  1  0.94556400  0.32052100  0.35446300  1
  C  102  1  0.96327600  0.34339700  0.33184200  1
  C  103  1  0.00038200  0.34352200  0.33207100  1
  C  104  1  0.01964600  0.27725400  0.40083500  1
  C  106  1  0.01964800  0.36704100  0.31137800  1
  C  111  1  0.05655100  0.68467400  0.71796600  1
  C  112  1  0.07532700  0.70719600  0.69508400  1
  C  113  1  0.11243400  0.70739700  0.69519600  1
  C  114  1  0.13013600  0.68471800  0.71802800  1
  C  115  1  0.11242400  0.66183200  0.74063600  1
  C  116  1  0.07532000  0.66171500  0.74041300  1
  C  117  1  0.05605700  0.72797000  0.67163800  1
  C  118  1  0.05605000  0.63818800  0.76109500  1
  C  120  1  0.01915300  0.68467400  0.71796300  1
  C  121  1  0.00037900  0.70719400  0.69507900  1
  C  122  1  0.96327300  0.70740500  0.69519900  1
  C  123  1  0.94556700  0.68472600  0.71802800  1
  C  124  1  0.96327800  0.66184000  0.74063900  1
  C  125  1  0.00038200  0.66171500  0.74041000  1
  C  126  1  0.01965000  0.72796500  0.67163300  1
  C  128  1  0.01964800  0.63819800  0.76110600  1
  C  133  1  0.01914700  0.68469000  0.35449200  1
  C  134  1  0.00037400  0.70720900  0.37737600  1
  C  135  1  0.96326500  0.70742000  0.37725400  1
  C  136  1  0.94556200  0.68473100  0.35443700  1
  C  137  1  0.96327300  0.66185000  0.33182100  1
  C  138  1  0.00037700  0.66173000  0.33204500  1
  C  139  1  0.01964400  0.72798800  0.40081400  1
  C  140  1  0.01964300  0.63820600  0.31136000  1
  C  142  1  0.05654500  0.68469000  0.35448900  1
  C  143  1  0.07532100  0.70721200  0.37737100  1
  C  144  1  0.11242800  0.70741800  0.37725100  1
  C  145  1  0.13013100  0.68473100  0.35443000  1
  C  146  1  0.11241800  0.66184700  0.33181900  1
  C  147  1  0.07531400  0.66173000  0.33204000  1
  C  148  1  0.05605000  0.72798100  0.40081900  1
  C  150  1  0.05604500  0.63820900  0.31135200  1
  C  155  1  0.01914700  0.32056800  0.71795800  1
  C  156  1  0.00037400  0.29804600  0.69507700  1
  C  157  1  0.96326800  0.29783500  0.69519900  1
  C  158  1  0.94556200  0.32052100  0.71801800  1
  C  159  1  0.96327300  0.34340500  0.74063100  1
  C  160  1  0.00037700  0.34352700  0.74040500  1
  C  161  1  0.01964400  0.27726900  0.67163300  1
  C  162  1  0.01964300  0.36704600  0.76109800  1
  C  164  1  0.05654500  0.32056800  0.71796100  1
  C  165  1  0.07532100  0.29804600  0.69507900  1
  C  166  1  0.11242800  0.29783500  0.69520200  1
  C  167  1  0.13013000  0.32052100  0.71802600  1
  C  168  1  0.11241800  0.34340800  0.74063100  1
  C  169  1  0.07531400  0.34352700  0.74040700  1
  C  170  1  0.05605100  0.27726900  0.67163300  1
  C  172  1  0.05604500  0.36705400  0.76109000  1
  C  177  1  0.35612900  0.02131600  0.35418200  1
  C  178  1  0.37901000  0.04009200  0.33166000  1
  C  179  1  0.37888800  0.07719900  0.33145200  1
  C  180  1  0.35606600  0.09490100  0.35413800  1
  C  181  1  0.33344800  0.07718900  0.37701700  1
  C  182  1  0.33367900  0.04008400  0.37714200  1
  C  183  1  0.40245600  0.02082200  0.31088600  1
  C  184  1  0.31298900  0.02081600  0.40066100  1
  C  186  1  0.35613100  0.98391900  0.35418200  1
  C  187  1  0.37901300  0.96514400  0.33166000  1
  C  188  1  0.37889500  0.92803800  0.33145200  1
  C  189  1  0.35607400  0.91033400  0.35413800  1
  C  190  1  0.33345500  0.92804300  0.37701700  1
  C  191  1  0.33368400  0.96514600  0.37714200  1
  C  192  1  0.40244800  0.98441600  0.31087600  1
  C  194  1  0.31299100  0.98441400  0.40066100  1
  C  199  1  0.71957900  0.02131400  0.71829600  1
  C  200  1  0.69670000  0.04009000  0.74082100  1
  C  201  1  0.69681700  0.07719700  0.74102400  1
  C  202  1  0.71964100  0.09490000  0.71834000  1
  C  203  1  0.74225000  0.07718800  0.69545400  1
  C  204  1  0.74202600  0.04008300  0.69533700  1
  C  205  1  0.67325400  0.02081900  0.76159500  1
  C  206  1  0.76270900  0.02081500  0.67181000  1
  C  208  1  0.71957900  0.98391700  0.71829600  1
  C  209  1  0.69669500  0.96514100  0.74081600  1
  C  210  1  0.69681200  0.92803500  0.74102400  1
  C  211  1  0.71964400  0.91033200  0.71834800  1
  C  212  1  0.74225200  0.92804300  0.69545900  1
  C  213  1  0.74202300  0.96514600  0.69533700  1
  C  214  1  0.67324900  0.98441400  0.76158700  1
  C  216  1  0.76271900  0.98441400  0.67182100  1
  C  221  1  0.35610500  0.98391400  0.71830900  1
  C  222  1  0.37898900  0.96513900  0.74082900  1
  C  223  1  0.37886700  0.92803300  0.74104000  1
  C  224  1  0.35605100  0.91032900  0.71834600  1
  C  225  1  0.33343700  0.92804000  0.69546400  1
  C  226  1  0.33365800  0.96514400  0.69534700  1
  C  227  1  0.40243000  0.98440800  0.76160800  1
  C  228  1  0.31297300  0.98441400  0.67182300  1
  C  230  1  0.35610500  0.02131100  0.71830900  1
  C  231  1  0.37898700  0.04008600  0.74083200  1
  C  232  1  0.37886900  0.07719300  0.74103700  1
  C  233  1  0.35604500  0.09489700  0.71835300  1
  C  234  1  0.33343200  0.07718600  0.69547200  1
  C  235  1  0.33365600  0.04008200  0.69535200  1
  C  236  1  0.40243500  0.02081400  0.76160300  1
  C  238  1  0.31296800  0.02081500  0.67183100  1
  C  243  1  0.71956900  0.98391400  0.35419000  1
  C  244  1  0.69668700  0.96514100  0.33166500  1
  C  245  1  0.69681000  0.92803500  0.33145400  1
  C  246  1  0.71962800  0.91032900  0.35414100  1
  C  247  1  0.74224200  0.92804000  0.37702500  1
  C  248  1  0.74201500  0.96514400  0.37715000  1
  C  249  1  0.67324600  0.98441400  0.31088900  1
  C  250  1  0.76270600  0.98440800  0.40066800  1
  C  252  1  0.71957100  0.02131300  0.35419000  1
  C  253  1  0.69669200  0.04008900  0.33166500  1
  C  254  1  0.69681700  0.07719600  0.33145700  1
  C  255  1  0.71963900  0.09489800  0.35414300  1
  C  256  1  0.74224400  0.07718500  0.37703200  1
  C  257  1  0.74202100  0.04008100  0.37715000  1
  C  258  1  0.67324600  0.02082000  0.31089100  1
  C  260  1  0.76270100  0.02081100  0.40067600  1
  C  265  1  0.85619800  0.82129600  0.55494200  1
  C  266  1  0.83370500  0.84419800  0.57373000  1
  C  267  1  0.83293700  0.84359500  0.61083700  1
  C  268  1  0.85523300  0.82031000  0.62846700  1
  C  269  1  0.87857500  0.79808700  0.61082600  1
  C  270  1  0.87918100  0.79888100  0.57372300  1
  C  271  1  0.81368000  0.86826900  0.55444000  1
  C  272  1  0.90332700  0.77894500  0.55443500  1
  C  274  1  0.85619800  0.82129900  0.51753100  1
  C  275  1  0.83370700  0.84420400  0.49874800  1
  C  276  1  0.83294500  0.84360500  0.46163900  1
  C  277  1  0.85524100  0.82032000  0.44400900  1
  C  278  1  0.87858300  0.79809700  0.46164700  1
  C  279  1  0.87918600  0.79888800  0.49875300  1
  C  280  1  0.81367000  0.86826100  0.51803900  1
  C  282  1  0.90333000  0.77895000  0.51803900  1
  C  287  1  0.21951200  0.18395000  0.55494500  1
  C  288  1  0.24200500  0.16104700  0.57373300  1
  C  289  1  0.24276000  0.16164100  0.61084200  1
  C  290  1  0.22047100  0.18493400  0.62847000  1
  C  291  1  0.19712700  0.20715300  0.61082900  1
  C  292  1  0.19652800  0.20636700  0.57372500  1
  C  293  1  0.26203000  0.13697700  0.55444200  1
  C  294  1  0.17237800  0.22629400  0.55443500  1
  C  296  1  0.21951200  0.18394600  0.51753400  1
  C  297  1  0.24200000  0.16103800  0.49875100  1
  C  298  1  0.24276600  0.16163600  0.46164200  1
  C  299  1  0.22047800  0.18492700  0.44401100  1
  C  300  1  0.19713000  0.20714600  0.46165000  1
  C  301  1  0.19652600  0.20635800  0.49875300  1
  C  302  1  0.26202500  0.13697000  0.51804400  1
  C  304  1  0.17238500  0.22630000  0.51803900  1
  C  309  1  0.21952400  0.82127000  0.51752400  1
  C  310  1  0.24201300  0.84418000  0.49874000  1
  C  311  1  0.24277700  0.84357900  0.46163200  1
  C  312  1  0.22047700  0.82030000  0.44399800  1
  C  313  1  0.19713400  0.79807700  0.46163900  1
  C  314  1  0.19653900  0.79885700  0.49874500  1
  C  315  1  0.26204300  0.86824300  0.51803100  1
  C  316  1  0.17239100  0.77892600  0.51803100  1
  C  318  1  0.21952600  0.82127000  0.55493700  1
  C  319  1  0.24201900  0.84417200  0.57372300  1
  C  320  1  0.24277800  0.84357600  0.61083100  1
  C  321  1  0.22048200  0.82029200  0.62846200  1
  C  322  1  0.19713800  0.79807100  0.61082100  1
  C  323  1  0.19654200  0.79885200  0.57371500  1
  C  324  1  0.26204500  0.86824300  0.55443200  1
  C  326  1  0.17239500  0.77892100  0.55442700  1
  C  331  1  0.85619800  0.18393600  0.51753400  1
  C  332  1  0.83370500  0.16103100  0.49875100  1
  C  333  1  0.83294000  0.16163200  0.46164200  1
  C  334  1  0.85523300  0.18491800  0.44400900  1
  C  335  1  0.87858300  0.20713400  0.46165000  1
  C  336  1  0.87918400  0.20634800  0.49875300  1
  C  337  1  0.81367500  0.13696700  0.51804400  1
  C  338  1  0.90333000  0.22628300  0.51803900  1
  C  340  1  0.85619800  0.18393900  0.55494500  1
  C  341  1  0.83370500  0.16103600  0.57373300  1
  C  342  1  0.83293700  0.16164300  0.61083900  1
  C  343  1  0.85523100  0.18493000  0.62847000  1
  C  344  1  0.87858500  0.20713900  0.61082600  1
  C  345  1  0.87918100  0.20635500  0.57372300  1
  C  346  1  0.81367500  0.13696900  0.55444200  1
  C  348  1  0.90333500  0.22628000  0.55443500  1
  C  353  1  0.55655300  0.82096600  0.85491800  1
  C  354  1  0.57534100  0.79847200  0.87782000  1
  C  355  1  0.61244700  0.79770700  0.87721700  1
  C  356  1  0.63007800  0.82000000  0.85393200  1
  C  357  1  0.61243700  0.84334200  0.83170600  1
  C  358  1  0.57533100  0.84395100  0.83250300  1
  C  359  1  0.55605000  0.77844800  0.90189100  1
  C  360  1  0.55604500  0.86809400  0.81256700  1
  C  362  1  0.51914200  0.82096600  0.85492100  1
  C  363  1  0.50035900  0.79847500  0.87782600  1
  C  364  1  0.46325000  0.79771200  0.87722700  1
  C  365  1  0.44561900  0.82000600  0.85394300  1
  C  366  1  0.46325800  0.84335000  0.83172000  1
  C  367  1  0.50036100  0.84395400  0.83251000  1
  C  368  1  0.51964900  0.77843700  0.90188300  1
  C  370  1  0.51964700  0.86809700  0.81257200  1
  C  375  1  0.55656000  0.18427300  0.21756600  1
  C  376  1  0.57534600  0.20676700  0.19466400  1
  C  377  1  0.61245500  0.20752200  0.19525800  1
  C  378  1  0.63008600  0.18523200  0.21854900  1
  C  379  1  0.61244500  0.16188400  0.24076600  1
  C  380  1  0.57533800  0.16128800  0.23998200  1
  C  381  1  0.55605600  0.22679300  0.17059500  1
  C  382  1  0.55605000  0.13713700  0.25990800  1
  C  384  1  0.51915000  0.18427300  0.21756400  1
  C  385  1  0.50036400  0.20676200  0.19465700  1
  C  386  1  0.46325500  0.20752700  0.19525600  1
  C  387  1  0.44562500  0.18524000  0.21854800  1
  C  388  1  0.46326300  0.16189300  0.24076700  1
  C  389  1  0.50036900  0.16128700  0.23997600  1
  C  390  1  0.51965700  0.22678800  0.17058900  1
  C  392  1  0.51965500  0.13714500  0.25991700  1
  C  397  1  0.51914200  0.18428700  0.85489500  1
  C  398  1  0.50035600  0.20677700  0.87780200  1
  C  399  1  0.46324700  0.20754200  0.87720100  1
  C  400  1  0.44561700  0.18524100  0.85392200  1
  C  401  1  0.46325800  0.16189700  0.83170100  1
  C  402  1  0.50036100  0.16130200  0.83248200  1
  C  403  1  0.51964700  0.22680900  0.90186500  1
  C  404  1  0.51964900  0.13715300  0.81255100  1
  C  406  1  0.55655300  0.18428900  0.85489200  1
  C  407  1  0.57533800  0.20678300  0.87779700  1
  C  408  1  0.61244700  0.20754400  0.87719900  1
  C  409  1  0.63007800  0.18524900  0.85391400  1
  C  410  1  0.61243700  0.16190300  0.83169300  1
  C  411  1  0.57533300  0.16130600  0.83247700  1
  C  412  1  0.55604500  0.22680400  0.90186800  1
  C  414  1  0.55604500  0.13715800  0.81254600  1
  C  419  1  0.51914200  0.82096600  0.21755500  1
  C  420  1  0.50035900  0.79847200  0.19465000  1
  C  421  1  0.46325300  0.79770400  0.19525100  1
  C  422  1  0.44561900  0.81999800  0.21853700  1
  C  423  1  0.46325800  0.84334800  0.24075200  1
  C  424  1  0.50036100  0.84395100  0.23996600  1
  C  425  1  0.51965200  0.77844200  0.17058600  1
  C  426  1  0.51964700  0.86810000  0.25990100  1
  C  428  1  0.55655300  0.82096600  0.21755800  1
  C  429  1  0.57534100  0.79847200  0.19465600  1
  C  430  1  0.61245000  0.79770700  0.19526300  1
  C  431  1  0.63007800  0.82000000  0.21855000  1
  C  432  1  0.61243700  0.84335500  0.24075800  1
  C  433  1  0.57533100  0.84395100  0.23997300  1
  C  434  1  0.55605300  0.77844200  0.17058900  1
  C  436  1  0.55604300  0.86810500  0.25989700  1
  C  441  1  0.85652900  0.52132500  0.85458500  1
  C  442  1  0.87943400  0.54011100  0.83209200  1
  C  443  1  0.87882700  0.57722000  0.83132400  1
  C  444  1  0.85554300  0.59485000  0.85361700  1
  C  445  1  0.83332200  0.57720900  0.87696200  1
  C  446  1  0.83411300  0.54010600  0.87756800  1
  C  447  1  0.90350200  0.52082000  0.81206700  1
  C  448  1  0.81417700  0.52081800  0.90171400  1
  C  450  1  0.85653200  0.48391400  0.85458800  1
  C  451  1  0.87943600  0.46512900  0.83209700  1
  C  452  1  0.87883800  0.42802000  0.83133200  1
  C  453  1  0.85555100  0.41038900  0.85362800  1
  C  454  1  0.83333000  0.42803000  0.87697000  1
  C  455  1  0.83411800  0.46513400  0.87757600  1
  C  456  1  0.90349900  0.48441900  0.81206200  1
  C  458  1  0.81418000  0.48442200  0.90171700  1
  C  463  1  0.21918200  0.52132000  0.21789800  1
  C  464  1  0.19627900  0.54010800  0.24039100  1
  C  465  1  0.19687300  0.57721700  0.24114600  1
  C  466  1  0.22016600  0.59484500  0.21885800  1
  C  467  1  0.24238600  0.57720400  0.19551400  1
  C  468  1  0.24159900  0.54009800  0.19491500  1
  C  469  1  0.17221000  0.52081800  0.26041700  1
  C  470  1  0.26152500  0.52081000  0.17076400  1
  C  472  1  0.21917900  0.48390900  0.21789700  1
  C  473  1  0.19627100  0.46512300  0.24038700  1
  C  474  1  0.19686900  0.42801700  0.24115200  1
  C  475  1  0.22016000  0.41038400  0.21886400  1
  C  476  1  0.24237800  0.42802200  0.19551500  1
  C  477  1  0.24159000  0.46512900  0.19491100  1
  C  478  1  0.17220300  0.48441700  0.26041100  1
  C  480  1  0.26153300  0.48441400  0.17077100  1
  C  485  1  0.85651100  0.48390700  0.21790700  1
  C  486  1  0.87941800  0.46512100  0.24039600  1
  C  487  1  0.87881700  0.42801500  0.24116200  1
  C  488  1  0.85553500  0.41038100  0.21886300  1
  C  489  1  0.83331400  0.42802200  0.19551900  1
  C  490  1  0.83409500  0.46512600  0.19492200  1
  C  491  1  0.90348300  0.48441400  0.26042700  1
  C  492  1  0.81416400  0.48441400  0.17077400  1
  C  494  1  0.85650800  0.52131700  0.21790800  1
  C  495  1  0.87941300  0.54010600  0.24040000  1
  C  496  1  0.87881400  0.57721200  0.24116000  1
  C  497  1  0.85552700  0.59484300  0.21886600  1
  C  498  1  0.83330700  0.57720400  0.19552200  1
  C  499  1  0.83409000  0.54009800  0.19492500  1
  C  500  1  0.90348600  0.52081200  0.26042200  1
  C  502  1  0.81415900  0.52081000  0.17077900  1
  C  507  1  0.21916600  0.48390900  0.85458800  1
  C  508  1  0.19626100  0.46512600  0.83209400  1
  C  509  1  0.19686400  0.42801700  0.83132900  1
  C  510  1  0.22015000  0.41038400  0.85362300  1
  C  511  1  0.24236500  0.42802500  0.87697200  1
  C  512  1  0.24157800  0.46512900  0.87757600  1
  C  513  1  0.17219600  0.48441700  0.81206700  1
  C  514  1  0.26151500  0.48441400  0.90172200  1
  C  516  1  0.21916700  0.52132000  0.85458800  1
  C  517  1  0.19626500  0.54010600  0.83209400  1
  C  518  1  0.19687000  0.57721400  0.83132900  1
  C  519  1  0.22015700  0.59484500  0.85362300  1
  C  520  1  0.24236700  0.57720400  0.87697700  1
  C  521  1  0.24158300  0.54009800  0.87757300  1
  C  522  1  0.17219800  0.52081800  0.81206700  1
  C  524  1  0.26150900  0.52081000  0.90172700  1
  C  529  1  0.44246100  0.23012700  0.89835000  1
  C  530  1  0.41702700  0.21697200  0.92156700  1
  C  531  1  0.39654400  0.23912000  0.94193200  1
  C  532  1  0.39987500  0.27576500  0.94095100  1
  C  533  1  0.42475700  0.28897500  0.91722900  1
  C  534  1  0.44508900  0.26684300  0.89668400  1
  C  537  1  0.38309200  0.18613100  0.95168700  1
  C  539  1  0.45780400  0.31995900  0.88636300  1
  C  541  1  0.36553700  0.15569100  0.96664300  1
  C  545  1  0.47524500  0.35050100  0.87146700  1
  C  549  1  0.63323400  0.77511700  0.89836500  1
  C  550  1  0.65867800  0.78827000  0.92156900  1
  C  551  1  0.67916300  0.76612000  0.94193200  1
  C  552  1  0.67582500  0.72947700  0.94095400  1
  C  553  1  0.65094800  0.71626700  0.91722900  1
  C  554  1  0.63060300  0.73840100  0.89669500  1
  C  557  1  0.69262800  0.81910800  0.95167600  1
  C  559  1  0.61789600  0.68528600  0.88636500  1
  C  561  1  0.71019100  0.84954500  0.96662700  1
  C  565  1  0.60048600  0.65474700  0.87143000  1
  C  569  1  0.63323900  0.23010800  0.17410700  1
  C  570  1  0.65868900  0.21695400  0.15090700  1
  C  571  1  0.67917100  0.23910200  0.13054200  1
  C  572  1  0.67583300  0.27574700  0.13151300  1
  C  573  1  0.65095800  0.28895700  0.15524400  1
  C  574  1  0.63062200  0.26682500  0.17578400  1
  C  577  1  0.69263300  0.18611400  0.12080000  1
  C  579  1  0.61791600  0.31994100  0.18611400  1
  C  581  1  0.71020200  0.15567500  0.10585800  1
  C  585  1  0.60047800  0.35048200  0.20101700  1
  C  589  1  0.44246800  0.77511200  0.17410700  1
  C  590  1  0.41702400  0.78826200  0.15090200  1
  C  591  1  0.39654400  0.76610900  0.13053700  1
  C  592  1  0.39988800  0.72946400  0.13151100  1
  C  593  1  0.42476000  0.71625900  0.15524600  1
  C  594  1  0.44509900  0.73839600  0.17578000  1
  C  597  1  0.38306900  0.81909500  0.12079400  1
  C  599  1  0.45781200  0.68528300  0.18611700  1
  C  601  1  0.36550100  0.84953000  0.10584800  1
  C  605  1  0.47522100  0.65474400  0.20105500  1
  C  609  1  0.89996500  0.40722800  0.26374700  1
  C  610  1  0.92318000  0.38179100  0.25059300  1
  C  611  1  0.94354500  0.36130900  0.27274200  1
  C  612  1  0.94256400  0.36464200  0.30938800  1
  C  613  1  0.91884500  0.38952400  0.32259800  1
  C  614  1  0.89830000  0.40985800  0.30046600  1
  C  617  1  0.95329700  0.34785400  0.21975300  1
  C  619  1  0.88798100  0.42257700  0.35358100  1
  C  621  1  0.96824800  0.33029400  0.18931400  1
  C  625  1  0.87308500  0.44002000  0.38412000  1
  C  629  1  0.89997600  0.59800400  0.80873400  1
  C  630  1  0.92318000  0.62345100  0.82188700  1
  C  631  1  0.94354500  0.64393100  0.79973700  1
  C  632  1  0.94256900  0.64059200  0.76309400  1
  C  633  1  0.91884200  0.61571500  0.74988400  1
  C  634  1  0.89830800  0.59537300  0.77201800  1
  C  637  1  0.95328700  0.65740100  0.85272500  1
  C  639  1  0.88797800  0.58266000  0.71890200  1
  C  641  1  0.96823200  0.67496600  0.88316200  1
  C  645  1  0.87304600  0.56525100  0.68836400  1
  C  649  1  0.17572100  0.59799900  0.26373100  1
  C  650  1  0.15252000  0.62344600  0.25057500  1
  C  651  1  0.13215300  0.64393100  0.27272100  1
  C  652  1  0.13312400  0.64059200  0.30936700  1
  C  653  1  0.15685700  0.61572300  0.32257900  1
  C  654  1  0.17739800  0.59538400  0.30044700  1
  C  657  1  0.12240900  0.65738800  0.21973300  1
  C  659  1  0.18772900  0.58268100  0.35356600  1
  C  661  1  0.10746400  0.67495300  0.18929300  1
  C  665  1  0.20263200  0.56524800  0.38410700  1
  C  669  1  0.17572000  0.40723300  0.80873700  1
  C  670  1  0.15251400  0.38178900  0.82188700  1
  C  671  1  0.13214900  0.36131200  0.79973400  1
  C  672  1  0.13312400  0.36465500  0.76309100  1
  C  673  1  0.15686000  0.38952400  0.74988400  1
  C  674  1  0.17739400  0.40986400  0.77202100  1
  C  677  1  0.12240300  0.34783900  0.85272000  1
  C  679  1  0.18773200  0.42257400  0.71890800  1
  C  681  1  0.10745500  0.33027100  0.88315400  1
  C  685  1  0.20267100  0.43998400  0.68836900  1
  C  689  1  0.26536300  0.86473000  0.44084500  1
  C  690  1  0.25220700  0.88794200  0.41540800  1
  C  691  1  0.27435500  0.90831000  0.39492900  1
  C  692  1  0.31099800  0.90733200  0.39825900  1
  C  693  1  0.32421100  0.88361000  0.42314100  1
  C  694  1  0.30207900  0.86306500  0.44347500  1
  C  697  1  0.22136600  0.91806200  0.38147400  1
  C  699  1  0.35519400  0.85274600  0.45619100  1
  C  701  1  0.19092600  0.93301300  0.36391600  1
  C  705  1  0.38573600  0.83785000  0.47363200  1
  C  709  1  0.81035000  0.86474300  0.63162100  1
  C  710  1  0.82350300  0.88794500  0.65706800  1
  C  711  1  0.80135200  0.90831000  0.67755000  1
  C  712  1  0.76470700  0.90733400  0.67421400  1
  C  713  1  0.75149900  0.88360700  0.64933500  1
  C  714  1  0.77363100  0.86307500  0.62899300  1
  C  717  1  0.85434100  0.91805200  0.69101800  1
  C  719  1  0.72051800  0.85274600  0.61628000  1
  C  721  1  0.88477800  0.93300000  0.70858300  1
  C  725  1  0.68997700  0.83781300  0.59887000  1
  C  729  1  0.26534500  0.14049000  0.63162600  1
  C  730  1  0.25218900  0.11728800  0.65707300  1
  C  731  1  0.27433700  0.09692200  0.67755500  1
  C  732  1  0.31098300  0.09789300  0.67421700  1
  C  733  1  0.32419300  0.12162600  0.64934800  1
  C  734  1  0.30206300  0.14216700  0.62901100  1
  C  737  1  0.22134800  0.08717700  0.69101500  1
  C  739  1  0.35517900  0.15249700  0.61630600  1
  C  741  1  0.19090800  0.07223200  0.70857800  1
  C  745  1  0.38572000  0.16740100  0.59887300  1
  C  749  1  0.81034700  0.14048700  0.44086000  1
  C  750  1  0.82349700  0.11728000  0.41541600  1
  C  751  1  0.80134500  0.09691400  0.39493600  1
  C  752  1  0.76470200  0.09789000  0.39828000  1
  C  753  1  0.75149400  0.12162600  0.42314900  1
  C  754  1  0.77363100  0.14216100  0.44348800  1
  C  757  1  0.85433300  0.08717000  0.38146600  1
  C  759  1  0.72051800  0.15249900  0.45619600  1
  C  761  1  0.88476800  0.07222100  0.36390100  1
  C  765  1  0.68997900  0.16743800  0.47360300  1
  C  769  1  0.26494700  0.40726700  0.17432200  1
  C  770  1  0.25179600  0.38184900  0.15108900  1
  C  771  1  0.27394700  0.36145000  0.13064000  1
  C  772  1  0.31058700  0.36485000  0.13155700  1
  C  773  1  0.32379400  0.38970400  0.15531200  1
  C  774  1  0.30166000  0.40995500  0.17593400  1
  C  777  1  0.22096200  0.34791900  0.12096100  1
  C  779  1  0.35476800  0.42275600  0.18618600  1
  C  781  1  0.19052400  0.33034100  0.10602700  1
  C  785  1  0.38529900  0.44023100  0.20106400  1
  C  789  1  0.81074300  0.59795400  0.17432100  1
  C  790  1  0.82389300  0.62338000  0.15109600  1
  C  791  1  0.80174500  0.64378000  0.13064500  1
  C  792  1  0.76510200  0.64037400  0.13155400  1
  C  793  1  0.75189500  0.61552800  0.15531500  1
  C  794  1  0.77402700  0.59526700  0.17593000  1
  C  797  1  0.85472800  0.65732000  0.12098100  1
  C  799  1  0.72091900  0.58247800  0.18619100  1
  C  801  1  0.88516600  0.67490100  0.10605000  1
  C  805  1  0.69038500  0.56504000  0.20110400  1
  C  809  1  0.26493900  0.59795400  0.89817000  1
  C  810  1  0.25179100  0.62338300  0.92139200  1
  C  811  1  0.27394400  0.64378500  0.94183800  1
  C  812  1  0.31058400  0.64037900  0.94092200  1
  C  813  1  0.32378700  0.61551700  0.91717200  1
  C  814  1  0.30165200  0.59526700  0.89655400  1
  C  817  1  0.22096100  0.65732800  0.95151000  1
  C  819  1  0.35475700  0.58246000  0.88630000  1
  C  821  1  0.19052600  0.67491400  0.96643700  1
  C  825  1  0.38528600  0.56498000  0.87142200  1
  C  829  1  0.81075800  0.40727200  0.89816200  1
  C  830  1  0.82391400  0.38185600  0.92139500  1
  C  831  1  0.80176600  0.36144700  0.94183800  1
  C  832  1  0.76512300  0.36484000  0.94091700  1
  C  833  1  0.75191600  0.38970400  0.91717200  1
  C  834  1  0.77404500  0.40996800  0.89656000  1
  C  837  1  0.85475200  0.34791900  0.95151000  1
  C  839  1  0.72093700  0.42276100  0.88630800  1
  C  841  1  0.88519200  0.33034100  0.96644200  1
  C  845  1  0.69040400  0.44020700  0.87140200  1
  C  849  1  0.44250000  0.86454000  0.80915000  1
  C  850  1  0.41708400  0.88777300  0.82230300  1
  C  851  1  0.39667400  0.90821600  0.80015600  1
  C  852  1  0.40006700  0.90729500  0.76351300  1
  C  853  1  0.42493100  0.88355300  0.75030500  1
  C  854  1  0.44519000  0.86293200  0.77243500  1
  C  857  1  0.38315000  0.91789500  0.85314100  1
  C  859  1  0.45799100  0.85268600  0.71932900  1
  C  861  1  0.36557400  0.93282500  0.88358100  1
  C  865  1  0.47546900  0.83781600  0.68879600  1
  C  869  1  0.63318500  0.86455100  0.26333100  1
  C  870  1  0.65861600  0.88777300  0.25018200  1
  C  871  1  0.67901800  0.90821600  0.27233300  1
  C  872  1  0.67561200  0.90730300  0.30897600  1
  C  873  1  0.65075000  0.88355000  0.32217900  1
  C  874  1  0.63049200  0.86294000  0.30004400  1
  C  877  1  0.69256600  0.91788200  0.21935200  1
  C  879  1  0.61769000  0.85268300  0.35314900  1
  C  881  1  0.71015500  0.93281000  0.18891700  1
  C  885  1  0.60024200  0.83777200  0.38367800  1
  C  889  1  0.63319000  0.14070100  0.80913200  1
  C  890  1  0.65861100  0.11747300  0.82228500  1
  C  891  1  0.67901200  0.09702200  0.80013700  1
  C  892  1  0.67560900  0.09793100  0.76349700  1
  C  893  1  0.65076300  0.12169100  0.75028700  1
  C  894  1  0.63051000  0.14231400  0.77241600  1
  C  897  1  0.69254500  0.08735300  0.85312300  1
  C  899  1  0.61771600  0.15256800  0.71930800  1
  C  901  1  0.71012400  0.07242300  0.88356300  1
  C  905  1  0.60024900  0.16744800  0.68877500  1
  C  909  1  0.44251000  0.14069800  0.26333600  1
  C  910  1  0.41708900  0.11746800  0.25018400  1
  C  911  1  0.39668700  0.09701900  0.27233300  1
  C  912  1  0.40008800  0.09793600  0.30897600  1
  C  913  1  0.42494200  0.12169000  0.32218100  1
  C  914  1  0.44520000  0.14230400  0.30004900  1
  C  917  1  0.38315000  0.08734900  0.21935000  1
  C  919  1  0.45799700  0.15256100  0.35315700  1
  C  921  1  0.36557400  0.07241500  0.18891300  1
  C  925  1  0.47544300  0.16747100  0.38368800  1
  C  929  1  0.89978100  0.22971000  0.63157900  1
  C  930  1  0.92300300  0.21656200  0.65700800  1
  C  931  1  0.94344900  0.23871400  0.67741000  1
  C  932  1  0.94253300  0.27535400  0.67400100  1
  C  933  1  0.91878300  0.28855900  0.64914200  1
  C  934  1  0.89816500  0.26642400  0.62888900  1
  C  937  1  0.95312000  0.18573100  0.69095000  1
  C  939  1  0.88791100  0.31953000  0.61608500  1
  C  941  1  0.96804800  0.15529600  0.70853900  1
  C  945  1  0.87303600  0.35005800  0.59860500  1
  C  949  1  0.89977600  0.77552800  0.44088900  1
  C  950  1  0.92300800  0.78868400  0.41547300  1
  C  951  1  0.94345200  0.76653600  0.39506600  1
  C  952  1  0.94253000  0.72989300  0.39845700  1
  C  953  1  0.91878500  0.71668600  0.42332100  1
  C  954  1  0.89817300  0.73881500  0.44358500  1
  C  957  1  0.95312300  0.81952200  0.38153600  1
  C  959  1  0.88792100  0.68570700  0.45637800  1
  C  961  1  0.96805500  0.84996200  0.36396000  1
  C  965  1  0.87301500  0.65517300  0.47382400  1
  C  969  1  0.17593700  0.22971500  0.44089400  1
  C  970  1  0.15270300  0.21656400  0.41547600  1
  C  971  1  0.13225200  0.23871400  0.39507700  1
  C  972  1  0.13316400  0.27535700  0.39848300  1
  C  973  1  0.15692600  0.28856200  0.42333100  1
  C  974  1  0.17755000  0.26643000  0.44358200  1
  C  977  1  0.12257700  0.18573100  0.38154400  1
  C  979  1  0.18780500  0.31953500  0.45638100  1
  C  981  1  0.10764500  0.15529400  0.36396300  1
  C  985  1  0.20268500  0.35006600  0.47385300  1
  C  989  1  0.17593600  0.77550500  0.63157100  1
  C  990  1  0.15271000  0.78866000  0.65699500  1
  C  991  1  0.13225900  0.76651000  0.67739700  1
  C  992  1  0.13316800  0.72987000  0.67399300  1
  C  993  1  0.15693000  0.71666200  0.64914500  1
  C  994  1  0.17754500  0.73879200  0.62888600  1
  C  997  1  0.12259500  0.81949600  0.69093400  1
  C  999  1  0.18780600  0.68568400  0.61609800  1
  C  1001  1  0.10766300  0.84993300  0.70851300  1
  C  1005  1  0.20272000  0.65515000  0.59866000  1
  C  1009  1  0.63323900  0.77511500  0.17412300  1
  C  1010  1  0.65867600  0.78826700  0.15090800  1
  C  1011  1  0.67915300  0.76611700  0.13054100  1
  C  1012  1  0.67581200  0.72947200  0.13151600  1
  C  1013  1  0.65094300  0.71626400  0.15525100  1
  C  1014  1  0.63061100  0.73839900  0.17579500  1
  C  1017  1  0.69261500  0.81910300  0.12078900  1
  C  1019  1  0.61789600  0.68528300  0.18612300  1
  C  1021  1  0.71017800  0.84954000  0.10583900  1
  C  1025  1  0.60045500  0.65474700  0.20102600  1
  C  1029  1  0.44247400  0.23011300  0.17410300  1
  C  1030  1  0.41702400  0.21696200  0.15090400  1
  C  1031  1  0.39653900  0.23911200  0.13054100  1
  C  1032  1  0.39987700  0.27575500  0.13151700  1
  C  1033  1  0.42475700  0.28896500  0.15524400  1
  C  1034  1  0.44509900  0.26683000  0.17577500  1
  C  1037  1  0.38307200  0.18612500  0.12079900  1
  C  1039  1  0.45780700  0.31994600  0.18611000  1
  C  1041  1  0.36550600  0.15568700  0.10585300  1
  C  1045  1  0.47521400  0.35048500  0.20104700  1
  C  1049  1  0.44246600  0.77512000  0.89837100  1
  C  1050  1  0.41701900  0.78826700  0.92157700  1
  C  1051  1  0.39653700  0.76611400  0.94193700  1
  C  1052  1  0.39987200  0.72946900  0.94094800  1
  C  1053  1  0.42475700  0.71626400  0.91722900  1
  C  1054  1  0.44509400  0.73840100  0.89669200  1
  C  1057  1  0.38307700  0.81910000  0.95169700  1
  C  1059  1  0.45781200  0.68528800  0.88636300  1
  C  1061  1  0.36551400  0.84953500  0.96664800  1
  C  1065  1  0.47525800  0.65475200  0.87146100  1
  C  1069  1  0.63322900  0.23012400  0.89835800  1
  C  1070  1  0.65867600  0.21696700  0.92155600  1
  C  1071  1  0.67915800  0.23911200  0.94192400  1
  C  1072  1  0.67582200  0.27575800  0.94095600  1
  C  1073  1  0.65095300  0.28897300  0.91722400  1
  C  1074  1  0.63060900  0.26684100  0.89668700  1
  C  1077  1  0.69262600  0.18612300  0.95165800  1
  C  1079  1  0.61791100  0.31995900  0.88635500  1
  C  1081  1  0.71018900  0.15568200  0.96660100  1
  C  1085  1  0.60051000  0.35050300  0.87141700  1
  C  1089  1  0.17573000  0.59800400  0.80873700  1
  C  1090  1  0.15251700  0.62344000  0.82188900  1
  C  1091  1  0.13215200  0.64392300  0.79973900  1
  C  1092  1  0.13313200  0.64058700  0.76309400  1
  C  1093  1  0.15685900  0.61570700  0.74988600  1
  C  1094  1  0.17740000  0.59537300  0.77202100  1
  C  1097  1  0.12239900  0.65738000  0.85272700  1
  C  1099  1  0.18772500  0.58265500  0.71890800  1
  C  1101  1  0.10744900  0.67494600  0.88316500  1
  C  1105  1  0.20262500  0.56521200  0.68836900  1
  C  1109  1  0.17571600  0.40723600  0.26373900  1
  C  1110  1  0.15251900  0.38178100  0.25058700  1
  C  1111  1  0.13215600  0.36129900  0.27273700  1
  C  1112  1  0.13313100  0.36463900  0.30938200  1
  C  1113  1  0.15685500  0.38951900  0.32259000  1
  C  1114  1  0.17738700  0.40986100  0.30045500  1
  C  1117  1  0.12241800  0.34782600  0.21975100  1
  C  1119  1  0.18772000  0.42257100  0.35357100  1
  C  1121  1  0.10747500  0.33025800  0.18931300  1
  C  1125  1  0.20265500  0.43998100  0.38411000  1
  C  1129  1  0.89998100  0.40723600  0.80874200  1
  C  1130  1  0.92318800  0.38179100  0.82188900  1
  C  1131  1  0.94354800  0.36130900  0.79973700  1
  C  1132  1  0.94256200  0.36464200  0.76309400  1
  C  1133  1  0.91884000  0.38952700  0.74988900  1
  C  1134  1  0.89830300  0.40986100  0.77202600  1
  C  1137  1  0.95331000  0.34785200  0.85272500  1
  C  1139  1  0.88797300  0.42257900  0.71891300  1
  C  1141  1  0.96826600  0.33029100  0.88316000  1
  C  1145  1  0.87307200  0.44002500  0.68837400  1
  C  1149  1  0.89997300  0.59799300  0.26373900  1
  C  1150  1  0.92317200  0.62344000  0.25058200  1
  C  1151  1  0.94353700  0.64392800  0.27272900  1
  C  1152  1  0.94256400  0.64059700  0.30937200  1
  C  1153  1  0.91883700  0.61572000  0.32258700  1
  C  1154  1  0.89830300  0.59537600  0.30045800  1
  C  1157  1  0.95327900  0.65738500  0.21973800  1
  C  1159  1  0.88797100  0.58267900  0.35357300  1
  C  1161  1  0.96822700  0.67494600  0.18929600  1
  C  1165  1  0.87303600  0.56527700  0.38412000  1
  C  1169  1  0.81034700  0.14050200  0.63162900  1
  C  1170  1  0.82350000  0.11728800  0.65706500  1
  C  1171  1  0.80135000  0.09692100  0.67754500  1
  C  1172  1  0.76470400  0.09789300  0.67420400  1
  C  1173  1  0.75149400  0.12162800  0.64933200  1
  C  1174  1  0.77362900  0.14217200  0.62900100  1
  C  1177  1  0.85433500  0.08717200  0.69100700  1
  C  1179  1  0.72051600  0.15249700  0.61628500  1
  C  1181  1  0.88477500  0.07222500  0.70857300  1
  C  1185  1  0.68997700  0.16739900  0.59884400  1
  C  1189  1  0.26535200  0.14048200  0.44086000  1
  C  1190  1  0.25219900  0.11728500  0.41540800  1
  C  1191  1  0.27435000  0.09692200  0.39492600  1
  C  1192  1  0.31099300  0.09789600  0.39826400  1
  C  1193  1  0.32420300  0.12162100  0.42314400  1
  C  1194  1  0.30206800  0.14215300  0.44348800  1
  C  1197  1  0.22136200  0.08718400  0.38145300  1
  C  1199  1  0.35518400  0.15248600  0.45619600  1
  C  1201  1  0.19092400  0.07224100  0.36388500  1
  C  1205  1  0.38572600  0.16742000  0.47360300  1
  C  1209  1  0.81035200  0.86474800  0.44085500  1
  C  1210  1  0.82350000  0.88795500  0.41541100  1
  C  1211  1  0.80134700  0.90831500  0.39492600  1
  C  1212  1  0.76470400  0.90732900  0.39825900  1
  C  1213  1  0.75149900  0.88360500  0.42314600  1
  C  1214  1  0.77363700  0.86307000  0.44348100  1
  C  1217  1  0.85433500  0.91807800  0.38146900  1
  C  1219  1  0.72052300  0.85273800  0.45619900  1
  C  1221  1  0.88477000  0.93303300  0.36390800  1
  C  1225  1  0.68998700  0.83783700  0.47364200  1
  C  1229  1  0.26535800  0.86473500  0.63161300  1
  C  1230  1  0.25220000  0.88793400  0.65705700  1
  C  1231  1  0.27434500  0.90830200  0.67754200  1
  C  1232  1  0.31099000  0.90733400  0.67420700  1
  C  1233  1  0.32420600  0.88360200  0.64933700  1
  C  1234  1  0.30207600  0.86306500  0.62899300  1
  C  1237  1  0.22135500  0.91803800  0.69100500  1
  C  1239  1  0.35519200  0.85273000  0.61629800  1
  C  1241  1  0.19091400  0.93298400  0.70856500  1
  C  1245  1  0.38573900  0.83779500  0.59889900  1
  C  1249  1  0.81075300  0.59796500  0.89815500  1
  C  1250  1  0.82390300  0.62338000  0.92139000  1
  C  1251  1  0.80175300  0.64378200  0.94183800  1
  C  1252  1  0.76511300  0.64037600  0.94092800  1
  C  1253  1  0.75190500  0.61552800  0.91716400  1
  C  1254  1  0.77403700  0.59527700  0.89654400  1
  C  1257  1  0.85473900  0.65731500  0.95151200  1
  C  1259  1  0.72093200  0.58247800  0.88628700  1
  C  1261  1  0.88517400  0.67489900  0.96644200  1
  C  1265  1  0.69040100  0.56500600  0.87140700  1
  C  1269  1  0.26494100  0.40726700  0.89815700  1
  C  1270  1  0.25179300  0.38184900  0.92139200  1
  C  1271  1  0.27394400  0.36145000  0.94184100  1
  C  1272  1  0.31058700  0.36485500  0.94092500  1
  C  1273  1  0.32378900  0.38971400  0.91716900  1
  C  1274  1  0.30165500  0.40997000  0.89655400  1
  C  1277  1  0.22096200  0.34790600  0.95151000  1
  C  1279  1  0.35476000  0.42277700  0.88630300  1
  C  1281  1  0.19052700  0.33032500  0.96644500  1
  C  1285  1  0.38528800  0.44022800  0.87139600  1
  C  1289  1  0.81075300  0.40726900  0.17431500  1
  C  1290  1  0.82390900  0.38184600  0.15109100  1
  C  1291  1  0.80176400  0.36144200  0.13064000  1
  C  1292  1  0.76512300  0.36484500  0.13154700  1
  C  1293  1  0.75191100  0.38969300  0.15530500  1
  C  1294  1  0.77403700  0.40994900  0.17592700  1
  C  1297  1  0.85475200  0.34790900  0.12097700  1
  C  1299  1  0.72092900  0.42273800  0.18618000  1
  C  1301  1  0.88519200  0.33032800  0.10605300  1
  C  1305  1  0.69039300  0.44020500  0.20105800  1
  C  1309  1  0.26495400  0.59795700  0.17431600  1
  C  1310  1  0.25180200  0.62337800  0.15108700  1
  C  1311  1  0.27395200  0.64378000  0.13063900  1
  C  1312  1  0.31059200  0.64037600  0.13155300  1
  C  1313  1  0.32380000  0.61552000  0.15530600  1
  C  1314  1  0.30166800  0.59526100  0.17592100  1
  C  1317  1  0.22096800  0.65732000  0.12097200  1
  C  1319  1  0.35477600  0.58246500  0.18617500  1
  C  1321  1  0.19053100  0.67489900  0.10604000  1
  C  1325  1  0.38530700  0.56501900  0.20108400  1
  C  1329  1  0.63319800  0.14069000  0.26333600  1
  C  1330  1  0.65861800  0.11746000  0.25018500  1
  C  1331  1  0.67902300  0.09701400  0.27233600  1
  C  1332  1  0.67562500  0.09793600  0.30897600  1
  C  1333  1  0.65076100  0.12168100  0.32218100  1
  C  1334  1  0.63050700  0.14230000  0.30004900  1
  C  1337  1  0.69255300  0.08733500  0.21935100  1
  C  1339  1  0.61770000  0.15254800  0.35315500  1
  C  1341  1  0.71013100  0.07240100  0.18891500  1
  C  1345  1  0.60022100  0.16742200  0.38368600  1
  C  1349  1  0.44250500  0.14069400  0.80913700  1
  C  1350  1  0.41707900  0.11747100  0.82229300  1
  C  1351  1  0.39667700  0.09701900  0.80014800  1
  C  1352  1  0.40008000  0.09792500  0.76350500  1
  C  1353  1  0.42492900  0.12168400  0.75029500  1
  C  1354  1  0.44519000  0.14230000  0.77242400  1
  C  1357  1  0.38313700  0.08736300  0.85313300  1
  C  1359  1  0.45797600  0.15255700  0.71931400  1
  C  1361  1  0.36555300  0.07244000  0.88357300  1
  C  1365  1  0.47541400  0.16746900  0.68877700  1
  C  1369  1  0.44250000  0.86453200  0.26332600  1
  C  1370  1  0.41708400  0.88777000  0.25017700  1
  C  1371  1  0.39668500  0.90821900  0.27232800  1
  C  1372  1  0.40009100  0.90730300  0.30897100  1
  C  1373  1  0.42494700  0.88355000  0.32217300  1
  C  1374  1  0.44519500  0.86292700  0.30003900  1
  C  1377  1  0.38315000  0.91789800  0.21934600  1
  C  1379  1  0.45800700  0.85267800  0.35314400  1
  C  1381  1  0.36556800  0.93283000  0.18891000  1
  C  1385  1  0.47548700  0.83780500  0.38367500  1
  C  1389  1  0.63319000  0.86453800  0.80914000  1
  C  1390  1  0.65860800  0.88777000  0.82229000  1
  C  1391  1  0.67901000  0.90821600  0.80014000  1
  C  1392  1  0.67561200  0.90730000  0.76350000  1
  C  1393  1  0.65075500  0.88354500  0.75029200  1
  C  1394  1  0.63049700  0.86293200  0.77242400  1
  C  1397  1  0.69254800  0.91788800  0.85312600  1
  C  1399  1  0.61770300  0.85267300  0.71931900  1
  C  1401  1  0.71012600  0.93282000  0.88356300  1
  C  1405  1  0.60026000  0.83776100  0.68878500  1
  C  1409  1  0.17593000  0.77551500  0.44088600  1
  C  1410  1  0.15270600  0.78867300  0.41546300  1
  C  1411  1  0.13225400  0.76652800  0.39506100  1
  C  1412  1  0.13316000  0.72988500  0.39846200  1
  C  1413  1  0.15691800  0.71667300  0.42331000  1
  C  1414  1  0.17754100  0.73880200  0.44356600  1
  C  1417  1  0.12259200  0.81951400  0.38152900  1
  C  1419  1  0.18779300  0.68569100  0.45635500  1
  C  1421  1  0.10766900  0.84995400  0.36394500  1
  C  1425  1  0.20267100  0.65515500  0.47382400  1
  C  1429  1  0.17592900  0.22972100  0.63158200  1
  C  1430  1  0.15270000  0.21656900  0.65700300  1
  C  1431  1  0.13225000  0.23871900  0.67740400  1
  C  1432  1  0.13316400  0.27536000  0.67400100  1
  C  1433  1  0.15691700  0.28856700  0.64914500  1
  C  1434  1  0.17753300  0.26643500  0.62888600  1
  C  1437  1  0.12258400  0.18573500  0.69094500  1
  C  1439  1  0.18778700  0.31954300  0.61609000  1
  C  1441  1  0.10765300  0.15529700  0.70852300  1
  C  1445  1  0.20269600  0.35007400  0.59864700  1
  C  1449  1  0.89977000  0.77551800  0.63158200  1
  C  1450  1  0.92300300  0.78867100  0.65699700  1
  C  1451  1  0.94345400  0.76652000  0.67739700  1
  C  1452  1  0.94254100  0.72987700  0.67399300  1
  C  1453  1  0.91878000  0.71667300  0.64914500  1
  C  1454  1  0.89815700  0.73880500  0.62889400  1
  C  1457  1  0.95312800  0.81950300  0.69093200  1
  C  1459  1  0.88790000  0.68569900  0.61609500  1
  C  1461  1  0.96805800  0.84994100  0.70851300  1
  C  1465  1  0.87302000  0.65516800  0.59862300  1
  C  1469  1  0.89976800  0.22970900  0.44089200  1
  C  1470  1  0.92300000  0.21656100  0.41547300  1
  C  1471  1  0.94344900  0.23871300  0.39507400  1
  C  1472  1  0.94253300  0.27535400  0.39848000  1
  C  1473  1  0.91878000  0.28855600  0.42333600  1
  C  1474  1  0.89816500  0.26642200  0.44359200  1
  C  1477  1  0.95312000  0.18573000  0.38153400  1
  C  1479  1  0.88791100  0.31952700  0.45639900  1
  C  1481  1  0.96805500  0.15529400  0.36395300  1
  C  1485  1  0.87300400  0.35005800  0.47384800  1
  N  535  1  0.37533100  0.21906000  0.96054900  1
  N  538  1  0.46556800  0.28705000  0.87739400  1
  N  555  1  0.70038500  0.78617800  0.96054100  1
  N  558  1  0.61013100  0.71819700  0.87739600  1
  N  575  1  0.70039500  0.21904300  0.11193500  1
  N  578  1  0.61014400  0.28703200  0.19507800  1
  N  595  1  0.37531800  0.78616500  0.11192900  1
  N  598  1  0.46557100  0.71819200  0.19508400  1
  N  615  1  0.96215900  0.34009300  0.25268200  1
  N  618  1  0.87901000  0.43033800  0.32067200  1
  N  635  1  0.96215200  0.66515700  0.81979500  1
  N  638  1  0.87901000  0.57489900  0.75181400  1
  N  655  1  0.11354500  0.66514900  0.25266100  1
  N  658  1  0.19669300  0.57490900  0.32065600  1
  N  675  1  0.11353800  0.34008800  0.81979000  1
  N  678  1  0.19669900  0.43033600  0.75181700  1
  N  695  1  0.25429500  0.92692400  0.37371200  1
  N  698  1  0.32228500  0.84377400  0.46395500  1
  N  715  1  0.82141100  0.92691600  0.69877400  1
  N  718  1  0.75342700  0.84377400  0.60851800  1
  N  735  1  0.25427600  0.07831300  0.69877700  1
  N  738  1  0.32227000  0.16146200  0.60853400  1
  N  755  1  0.82140300  0.07830400  0.37371200  1
  N  758  1  0.75342700  0.16146600  0.46395800  1
  N  775  1  0.25388800  0.34023100  0.11202400  1
  N  778  1  0.32186100  0.43044200  0.19522500  1
  N  795  1  0.82180400  0.66500400  0.11203600  1
  N  798  1  0.75382800  0.57479200  0.19523200  1
  N  815  1  0.25388900  0.66501100  0.96044700  1
  N  818  1  0.32184800  0.57477400  0.87726400  1
  N  835  1  0.82182700  0.34022800  0.96044700  1
  N  838  1  0.75384400  0.43044700  0.87726400  1
  N  855  1  0.37545600  0.92682800  0.82021400  1
  N  858  1  0.46568000  0.84364700  0.75223600  1
  N  875  1  0.70024700  0.92682300  0.25228000  1
  N  878  1  0.61000900  0.84364400  0.32024000  1
  N  895  1  0.70023100  0.07841100  0.82019800  1
  N  898  1  0.61002700  0.16160700  0.75221500  1
  N  915  1  0.37546600  0.07840800  0.25227600  1
  N  918  1  0.46568000  0.16160300  0.32024800  1
  N  935  1  0.96205800  0.21865900  0.69863600  1
  N  938  1  0.87887400  0.28662100  0.60839900  1
  N  955  1  0.96206100  0.78659700  0.37384500  1
  N  958  1  0.87887900  0.71861400  0.46406400  1
  N  975  1  0.11363700  0.21865700  0.37385800  1
  N  978  1  0.19684400  0.28662800  0.46406400  1
  N  995  1  0.11365000  0.78657100  0.69861800  1
  N  998  1  0.19684800  0.71859000  0.60841200  1
  N  1015  1  0.70037200  0.78617300  0.11192700  1
  N  1018  1  0.61013100  0.71819500  0.19509000  1
  N  1035  1  0.37531500  0.21905400  0.11193500  1
  N  1038  1  0.46557100  0.28703400  0.19507700  1
  N  1055  1  0.37531500  0.78617000  0.96055100  1
  N  1058  1  0.46557600  0.71820000  0.87740200  1
  N  1075  1  0.70038200  0.21905000  0.96052800  1
  N  1078  1  0.61014200  0.28705000  0.87738300  1
  N  1095  1  0.11353900  0.66514100  0.81979700  1
  N  1098  1  0.19669200  0.57489400  0.75181700  1
  N  1115  1  0.11355200  0.34007200  0.25268000  1
  N  1118  1  0.19668800  0.43033600  0.32065900  1
  N  1135  1  0.96216500  0.34009000  0.81979200  1
  N  1138  1  0.87901000  0.43034600  0.75182200  1
  N  1155  1  0.96214600  0.66514700  0.25266500  1
  N  1158  1  0.87900200  0.57490900  0.32066700  1
  N  1175  1  0.82140800  0.07830800  0.69876400  1
  N  1178  1  0.75342500  0.16146600  0.60852100  1
  N  1195  1  0.25429100  0.07831800  0.37369700  1
  N  1198  1  0.32227500  0.16145300  0.46396000  1
  N  1215  1  0.82140300  0.92693200  0.37370700  1
  N  1218  1  0.75343500  0.84377700  0.46396300  1
  N  1235  1  0.25428200  0.92690800  0.69876400  1
  N  1238  1  0.32228500  0.84376100  0.60852900  1
  N  1255  1  0.82181100  0.66500100  0.96045300  1
  N  1258  1  0.75383900  0.57479200  0.87724800  1
  N  1275  1  0.25389000  0.34022800  0.96045300  1
  N  1278  1  0.32185100  0.43045300  0.87725800  1
  N  1295  1  0.82182700  0.34022000  0.11203300  1
  N  1298  1  0.75383300  0.43042900  0.19521900  1
  N  1315  1  0.25389400  0.66500100  0.11202900  1
  N  1318  1  0.32186600  0.57478200  0.19521900  1
  N  1335  1  0.70024100  0.07840100  0.25227800  1
  N  1338  1  0.61001400  0.16158700  0.32024800  1
  N  1355  1  0.37545300  0.07841500  0.82020900  1
  N  1358  1  0.46566500  0.16160100  0.75222000  1
  N  1375  1  0.37546600  0.92683300  0.25227300  1
  N  1378  1  0.46568500  0.84363600  0.32023800  1
  N  1395  1  0.70023100  0.92682800  0.82019800  1
  N  1398  1  0.61002000  0.84363100  0.75222500  1
  N  1415  1  0.11364800  0.78658900  0.37384000  1
  N  1418  1  0.19683300  0.71859500  0.46404900  1
  N  1435  1  0.11364100  0.21866100  0.69862600  1
  N  1438  1  0.19683100  0.28663400  0.60840900  1
  N  1455  1  0.96206600  0.78657900  0.69861800  1
  N  1458  1  0.87886400  0.71860600  0.60840900  1
  N  1475  1  0.96206100  0.21865700  0.37385300  1
  N  1478  1  0.87886600  0.28662100  0.46407500  1
  O  536  1  0.40913200  0.18294200  0.92753000  1
  O  540  1  0.43254500  0.32302700  0.91133900  1
  O  556  1  0.66658000  0.82229800  0.92753000  1
  O  560  1  0.64316000  0.68221500  0.91133100  1
  O  576  1  0.66658800  0.18292500  0.14494900  1
  O  580  1  0.64317300  0.32300900  0.16113900  1
  O  596  1  0.40911700  0.82229000  0.14494100  1
  O  600  1  0.43254700  0.68220700  0.16114600  1
  O  616  1  0.92914400  0.37389500  0.21656400  1
  O  620  1  0.91295700  0.39731700  0.35664900  1
  O  636  1  0.92913800  0.63135300  0.85591500  1
  O  640  1  0.91294700  0.60792800  0.71583200  1
  O  656  1  0.14656100  0.63134500  0.21654500  1
  O  660  1  0.16275200  0.60794100  0.35663100  1
  O  676  1  0.14655200  0.37388400  0.85591500  1
  O  680  1  0.16276000  0.39731200  0.71583200  1
  O  696  1  0.21817700  0.89390600  0.40751400  1
  O  700  1  0.35826200  0.87772200  0.43093100  1
  O  716  1  0.85753100  0.89390600  0.66497000  1
  O  720  1  0.71744800  0.87771100  0.64154700  1
  O  736  1  0.21815900  0.11132900  0.66497000  1
  O  740  1  0.35824700  0.12752100  0.64156500  1
  O  756  1  0.85752500  0.11131800  0.40751100  1
  O  760  1  0.71744500  0.12752700  0.43093400  1
  O  776  1  0.21776900  0.37391000  0.14517000  1
  O  780  1  0.35784100  0.39754600  0.16116300  1
  O  796  1  0.85792100  0.63132400  0.14518400  1
  O  800  1  0.71784900  0.60769100  0.16117100  1
  O  816  1  0.21776600  0.63133200  0.92730900  1
  O  820  1  0.35783300  0.60767300  0.91132000  1
  O  836  1  0.85794200  0.37391800  0.92730900  1
  O  840  1  0.71786700  0.39754100  0.91132000  1
  O  856  1  0.40914500  0.89369000  0.85633100  1
  O  860  1  0.43277600  0.87770300  0.71625600  1
  O  876  1  0.66656700  0.89368400  0.21615700  1
  O  880  1  0.64290800  0.87769600  0.35622500  1
  O  896  1  0.66655200  0.11156100  0.85631300  1
  O  900  1  0.64292600  0.12754200  0.71623800  1
  O  916  1  0.40914500  0.11155300  0.21615800  1
  O  920  1  0.43278100  0.12754400  0.35623000  1
  O  936  1  0.92891700  0.18253600  0.66495400  1
  O  940  1  0.91293100  0.32260500  0.64129700  1
  O  956  1  0.92892200  0.82271200  0.40753500  1
  O  960  1  0.91293600  0.68263700  0.43115800  1
  O  976  1  0.14678700  0.18253800  0.40753200  1
  O  980  1  0.16277800  0.32260800  0.43117300  1
  O  996  1  0.14679900  0.82268600  0.66493800  1
  O  1000  1  0.16278600  0.68261300  0.64131300  1
  O  1016  1  0.66657200  0.82229500  0.14494400  1
  O  1020  1  0.64315300  0.68221300  0.16114600  1
  O  1036  1  0.40912200  0.18293300  0.14494500  1
  O  1040  1  0.43253900  0.32301600  0.16114200  1
  O  1056  1  0.40912200  0.82229500  0.92754600  1
  O  1060  1  0.43255000  0.68221500  0.91133300  1
  O  1076  1  0.66657500  0.18293600  0.92751200  1
  O  1080  1  0.64317300  0.32302400  0.91132600  1
  O  1096  1  0.14655200  0.63134000  0.85591700  1
  O  1100  1  0.16275100  0.60791700  0.71583500  1
  O  1116  1  0.14656200  0.37387600  0.21655900  1
  O  1120  1  0.16275300  0.39730400  0.35664100  1
  O  1136  1  0.92915900  0.37389500  0.85592000  1
  O  1140  1  0.91294400  0.39731700  0.71583700  1
  O  1156  1  0.92913100  0.63133700  0.21655200  1
  O  1160  1  0.91293900  0.60794300  0.35664100  1
  O  1176  1  0.85752800  0.11132700  0.66496700  1
  O  1180  1  0.71744500  0.12752100  0.64154200  1
  O  1196  1  0.21817000  0.11132800  0.40750600  1
  O  1200  1  0.35825400  0.12751800  0.43092900  1
  O  1216  1  0.85753100  0.89392600  0.40751400  1
  O  1220  1  0.71744800  0.87771100  0.43093700  1
  O  1236  1  0.21816900  0.89389000  0.66495700  1
  O  1240  1  0.35825700  0.87770300  0.64156000  1
  O  1256  1  0.85792900  0.63132400  0.92730400  1
  O  1260  1  0.71785900  0.60768800  0.91131300  1
  O  1276  1  0.21776700  0.37390200  0.92730700  1
  O  1280  1  0.35783500  0.39755900  0.91132000  1
  O  1296  1  0.85793700  0.37390500  0.14518200  1
  O  1300  1  0.71786200  0.39752800  0.16115500  1
  O  1316  1  0.21777600  0.63132200  0.14517500  1
  O  1320  1  0.35784600  0.60768000  0.16115800  1
  O  1336  1  0.66655900  0.11154200  0.21615800  1
  O  1340  1  0.64291600  0.12752900  0.35622700  1
  O  1356  1  0.40913500  0.11156400  0.85632100  1
  O  1360  1  0.43276100  0.12753700  0.71624600  1
  O  1376  1  0.40914000  0.89368700  0.21615200  1
  O  1380  1  0.43279400  0.87770100  0.35622000  1
  O  1396  1  0.66655200  0.89368400  0.85631800  1
  O  1400  1  0.64291800  0.87769000  0.71624600  1
  O  1416  1  0.14679700  0.82270100  0.40752200  1
  O  1420  1  0.16276800  0.68262400  0.43114500  1
  O  1436  1  0.14678700  0.18254300  0.66494600  1
  O  1440  1  0.16277000  0.32261300  0.64130500  1
  O  1456  1  0.92891700  0.82269600  0.66494100  1
  O  1460  1  0.91292600  0.68262600  0.64130500  1
  O  1476  1  0.92891700  0.18253500  0.40752700  1
  O  1480  1  0.91292800  0.32260300  0.43118100  1
