# generated using pymatgen
data_H9C13N4O3
_symmetry_space_group_name_H-M   'P 1'
_cell_length_a   36.16570000
_cell_length_b   36.16570000
_cell_length_c   36.16570000
_cell_angle_alpha   90.00000000
_cell_angle_beta   90.00000000
_cell_angle_gamma   90.00000000
_symmetry_Int_Tables_number   1
_chemical_formula_structural   H9C13N4O3
_chemical_formula_sum   'H288 C416 N128 O96'
_cell_volume   47303.21145046
_cell_formula_units_Z   32
loop_
 _symmetry_equiv_pos_site_id
 _symmetry_equiv_pos_as_xyz
  1  'x, y, z'
loop_
 _atom_site_type_symbol
 _atom_site_label
 _atom_site_symmetry_multiplicity
 _atom_site_fract_x
 _atom_site_fract_y
 _atom_site_fract_z
 _atom_site_occupancy
  H  7  1  0.95213400  0.99906800  0.03591300  1
  H  16  1  0.05706400  0.03233500  0.99525200  1
  H  19  1  0.05582000  0.94713500  0.97059600  1
  H  20  1  0.94648800  0.97370400  0.95011600  1
  H  21  1  0.99878300  0.88152300  0.08672100  1
  H  22  1  0.00692700  0.08399100  0.87873900  1
  H  27  1  0.07001200  0.10600800  0.95660800  1
  H  28  1  0.08460600  0.90790400  0.03221400  1
  H  29  1  0.94278300  0.96689700  0.11138300  1
  H  30  1  0.93235300  0.03457900  0.89472600  1
  H  37  1  0.54855000  0.00219400  0.53633400  1
  H  46  1  0.44376900  0.96878300  0.49538900  1
  H  49  1  0.44507100  0.05400900  0.47058100  1
  H  50  1  0.55442600  0.02740200  0.45049600  1
  H  51  1  0.50192900  0.12004000  0.58639300  1
  H  52  1  0.49431400  0.91697400  0.37912400  1
  H  57  1  0.43095500  0.89503900  0.45680600  1
  H  58  1  0.41549900  0.09270100  0.53224500  1
  H  59  1  0.55780800  0.03465400  0.61163500  1
  H  60  1  0.56864400  0.96653500  0.39514200  1
  H  67  1  0.25340500  0.69487700  0.28684900  1
  H  76  1  0.21720900  0.79958600  0.24588400  1
  H  79  1  0.30152100  0.80019200  0.22154800  1
  H  80  1  0.27695300  0.68911400  0.20205000  1
  H  81  1  0.37042800  0.74523100  0.33590900  1
  H  82  1  0.16646700  0.74718900  0.12997400  1
  H  87  1  0.14443600  0.81255200  0.20710600  1
  H  88  1  0.34107500  0.82960900  0.28251900  1
  H  89  1  0.28643400  0.68168500  0.35845800  1
  H  90  1  0.21421900  0.67359700  0.14660400  1
  H  97  1  0.24764700  0.30628500  0.78616200  1
  H  106  1  0.28441300  0.20138100  0.74612100  1
  H  109  1  0.20027100  0.20017400  0.72158200  1
  H  110  1  0.22443900  0.31126200  0.70121100  1
  H  111  1  0.13079700  0.25558200  0.83552100  1
  H  112  1  0.33582100  0.25334300  0.63032100  1
  H  117  1  0.35856400  0.19029900  0.70649800  1
  H  118  1  0.16003800  0.17165200  0.78252900  1
  H  119  1  0.21520500  0.32071500  0.85670400  1
  H  120  1  0.28735200  0.32694200  0.64631100  1
  H  127  1  0.74510700  0.29534600  0.71297400  1
  H  136  1  0.78335800  0.19200300  0.75191400  1
  H  139  1  0.69989500  0.19184800  0.78328400  1
  H  140  1  0.72493300  0.30122700  0.80066200  1
  H  141  1  0.62653800  0.24477100  0.66899300  1
  H  142  1  0.83854300  0.24206000  0.86656400  1
  H  147  1  0.86091800  0.18254800  0.79114200  1
  H  148  1  0.65591700  0.16231100  0.72482800  1
  H  149  1  0.70993800  0.30233600  0.63947900  1
  H  150  1  0.78656000  0.31697200  0.85199800  1
  H  157  1  0.75600600  0.70633500  0.21275700  1
  H  166  1  0.71767700  0.80952700  0.25186000  1
  H  169  1  0.80124800  0.80958800  0.28343200  1
  H  170  1  0.77626900  0.70036800  0.30056100  1
  H  171  1  0.87487000  0.75665900  0.16943100  1
  H  172  1  0.66227900  0.75914200  0.36631700  1
  H  177  1  0.63971900  0.81895300  0.29134200  1
  H  178  1  0.84487800  0.83973200  0.22508200  1
  H  179  1  0.79136300  0.69941700  0.13937800  1
  H  180  1  0.71458900  0.68451000  0.35187800  1
  H  187  1  0.45525200  0.49877400  0.53718900  1
  H  196  1  0.55948300  0.53363800  0.49733300  1
  H  199  1  0.55842400  0.44890300  0.46965200  1
  H  200  1  0.45027700  0.47433100  0.45016100  1
  H  201  1  0.50179600  0.37965300  0.58421700  1
  H  202  1  0.50057100  0.62125400  0.41752000  1
  H  207  1  0.57127300  0.60892800  0.45848100  1
  H  208  1  0.58612200  0.40579600  0.52888800  1
  H  209  1  0.44400900  0.46667400  0.60956400  1
  H  210  1  0.43772100  0.53611300  0.39412800  1
  H  217  1  0.04613100  0.50243200  0.03675700  1
  H  226  1  0.94178500  0.46720200  0.99767700  1
  H  229  1  0.94230400  0.55188800  0.96991900  1
  H  230  1  0.05044800  0.52675000  0.94959000  1
  H  231  1  0.99926200  0.62124600  0.08441400  1
  H  232  1  0.00074700  0.37945600  0.91793900  1
  H  237  1  0.93149000  0.39103400  0.95830900  1
  H  238  1  0.91543100  0.59545600  0.02921400  1
  H  239  1  0.05816600  0.53382100  0.10860100  1
  H  240  1  0.06286700  0.46471400  0.89365900  1
  H  247  1  0.93263800  0.90899400  0.15934500  1
  H  250  1  0.79347000  0.81671300  0.06651200  1
  H  251  1  0.83147300  0.80318600  0.09406600  1
  H  252  1  0.83833600  0.83200400  0.05460900  1
  H  261  1  0.56833100  0.09263200  0.65944300  1
  H  264  1  0.70730300  0.18444100  0.56587300  1
  H  265  1  0.66949600  0.19809500  0.59363400  1
  H  266  1  0.66232400  0.16928400  0.55422700  1
  H  275  1  0.32696200  0.65277900  0.40755500  1
  H  278  1  0.45335800  0.55410800  0.29953500  1
  H  279  1  0.40984400  0.57379000  0.28918300  1
  H  280  1  0.41385300  0.53919600  0.32416400  1
  H  289  1  0.17421600  0.34854800  0.90697800  1
  H  292  1  0.04679000  0.44625400  0.79924600  1
  H  293  1  0.09040800  0.42686000  0.78878900  1
  H  294  1  0.08628300  0.46155100  0.82365600  1
  H  303  1  0.58784400  0.92313400  0.34096100  1
  H  306  1  0.71521100  0.81501500  0.43690600  1
  H  307  1  0.69844600  0.86049500  0.44322400  1
  H  308  1  0.72068800  0.84772600  0.40101500  1
  H  317  1  0.91304200  0.07812400  0.84063600  1
  H  320  1  0.78584100  0.18581500  0.93721400  1
  H  321  1  0.80283800  0.14041000  0.94345500  1
  H  322  1  0.78035300  0.15307900  0.90134900  1
  H  331  1  0.17344700  0.64664000  0.09698200  1
  H  334  1  0.08594300  0.57089700  0.21421000  1
  H  335  1  0.08089500  0.53657500  0.17909700  1
  H  336  1  0.04175800  0.55312400  0.20325800  1
  H  345  1  0.32778600  0.35455100  0.59683600  1
  H  348  1  0.41582200  0.42909200  0.71445000  1
  H  349  1  0.42072700  0.46383700  0.67974100  1
  H  350  1  0.45996600  0.44697000  0.70351200  1
  H  359  1  0.07644900  0.09528000  0.84096800  1
  H  362  1  0.19912000  0.19961700  0.94526600  1
  H  363  1  0.16210100  0.21084300  0.91540900  1
  H  364  1  0.15484900  0.18078900  0.95388200  1
  H  373  1  0.42526800  0.90533000  0.34121300  1
  H  376  1  0.30117200  0.80201700  0.44486400  1
  H  377  1  0.33842600  0.79047800  0.41541800  1
  H  378  1  0.34544300  0.82068600  0.45381700  1
  H  387  1  0.65069400  0.31369200  0.59289600  1
  H  390  1  0.56475600  0.45521900  0.68843400  1
  H  391  1  0.54934900  0.41848500  0.66015600  1
  H  392  1  0.57779900  0.40942400  0.69943600  1
  H  401  1  0.85039400  0.68740300  0.09279000  1
  H  404  1  0.93659200  0.54670000  0.18925500  1
  H  405  1  0.95191000  0.58319600  0.16062500  1
  H  406  1  0.92354600  0.59258100  0.19989200  1
  H  415  1  0.40681400  0.08377200  0.65623800  1
  H  418  1  0.28783400  0.19622400  0.55590200  1
  H  419  1  0.30299400  0.15000100  0.55114700  1
  H  420  1  0.28085700  0.16485500  0.59271900  1
  H  429  1  0.09455300  0.91700100  0.15640000  1
  H  432  1  0.21255100  0.80488400  0.05456300  1
  H  433  1  0.19745600  0.85116800  0.05019300  1
  H  434  1  0.21983500  0.83601000  0.09152400  1
  H  443  1  0.82648800  0.34000400  0.90609300  1
  H  446  1  0.94570000  0.45751400  0.81067700  1
  H  447  1  0.89989700  0.44250800  0.80250100  1
  H  448  1  0.91132500  0.46617900  0.84430800  1
  H  457  1  0.67437700  0.66121800  0.40575700  1
  H  460  1  0.55586100  0.54368900  0.30941200  1
  H  461  1  0.60176600  0.55857600  0.30160600  1
  H  462  1  0.58994300  0.53493200  0.34332000  1
  H  471  1  0.95213400  0.99906800  0.45067100  1
  H  480  1  0.05706400  0.03233500  0.41001000  1
  H  483  1  0.05582000  0.94713500  0.38535400  1
  H  484  1  0.94648800  0.97370400  0.36487400  1
  H  485  1  0.99878300  0.88152300  0.50147900  1
  H  486  1  0.00692700  0.08399100  0.29349700  1
  H  491  1  0.07001200  0.10600800  0.37136600  1
  H  492  1  0.08460600  0.90790400  0.44697200  1
  H  493  1  0.94278300  0.96689700  0.52614100  1
  H  494  1  0.93235300  0.03457900  0.30948400  1
  H  501  1  0.54855000  0.00219400  0.95109200  1
  H  510  1  0.44376900  0.96878300  0.91014700  1
  H  513  1  0.44507100  0.05400900  0.88533900  1
  H  514  1  0.55442600  0.02740200  0.86525400  1
  H  515  1  0.50192900  0.12004000  0.00115063  1
  H  516  1  0.49431400  0.91697400  0.79388200  1
  H  521  1  0.43095500  0.89503900  0.87156400  1
  H  522  1  0.41549900  0.09270100  0.94700300  1
  H  523  1  0.55780800  0.03465400  0.02639260  1
  H  524  1  0.56864400  0.96653500  0.80990000  1
  H  531  1  0.25340500  0.69487700  0.70160700  1
  H  540  1  0.21720900  0.79958600  0.66064200  1
  H  543  1  0.30152100  0.80019200  0.63630600  1
  H  544  1  0.27695300  0.68911400  0.61680800  1
  H  545  1  0.37042800  0.74523100  0.75066700  1
  H  546  1  0.16646700  0.74718900  0.54473200  1
  H  551  1  0.14443600  0.81255200  0.62186400  1
  H  552  1  0.34107500  0.82960900  0.69727700  1
  H  553  1  0.28643400  0.68168500  0.77321600  1
  H  554  1  0.21421900  0.67359700  0.56136200  1
  H  561  1  0.24764700  0.30628500  0.20092000  1
  H  570  1  0.28441300  0.20138100  0.16087900  1
  H  573  1  0.20027100  0.20017400  0.13634000  1
  H  574  1  0.22443900  0.31126200  0.11596900  1
  H  575  1  0.13079700  0.25558200  0.25027900  1
  H  576  1  0.33582100  0.25334300  0.04507860  1
  H  581  1  0.35856400  0.19029900  0.12125600  1
  H  582  1  0.16003800  0.17165200  0.19728700  1
  H  583  1  0.21520500  0.32071500  0.27146200  1
  H  584  1  0.28735200  0.32694200  0.06106860  1
  H  591  1  0.74510700  0.29534600  0.12773200  1
  H  600  1  0.78335800  0.19200300  0.16667200  1
  H  603  1  0.69989500  0.19184800  0.19804200  1
  H  604  1  0.72493300  0.30122700  0.21542000  1
  H  605  1  0.62653800  0.24477100  0.08375060  1
  H  606  1  0.83854300  0.24206000  0.28132200  1
  H  611  1  0.86091800  0.18254800  0.20590000  1
  H  612  1  0.65591700  0.16231100  0.13958600  1
  H  613  1  0.70993800  0.30233600  0.05423660  1
  H  614  1  0.78656000  0.31697200  0.26675600  1
  H  621  1  0.75600600  0.70633500  0.62751500  1
  H  630  1  0.71767700  0.80952700  0.66666667  1
  H  633  1  0.80124800  0.80958800  0.69819000  1
  H  634  1  0.77626900  0.70036800  0.71531900  1
  H  635  1  0.87487000  0.75665900  0.58418900  1
  H  636  1  0.66227900  0.75914200  0.78107500  1
  H  641  1  0.63971900  0.81895300  0.70610000  1
  H  642  1  0.84487800  0.83973200  0.63984000  1
  H  643  1  0.79136300  0.69941700  0.55413600  1
  H  644  1  0.71458900  0.68451000  0.76663600  1
  H  651  1  0.45525200  0.49877400  0.95194700  1
  H  660  1  0.55948300  0.53363800  0.91209100  1
  H  663  1  0.55842400  0.44890300  0.88441000  1
  H  664  1  0.45027700  0.47433100  0.86491900  1
  H  665  1  0.50179600  0.37965300  0.99897500  1
  H  666  1  0.50057100  0.62125400  0.83227800  1
  H  671  1  0.57127300  0.60892800  0.87323900  1
  H  672  1  0.58612200  0.40579600  0.94364600  1
  H  673  1  0.44400900  0.46667400  0.02432160  1
  H  674  1  0.43772100  0.53611300  0.80888600  1
  H  681  1  0.04613100  0.50243200  0.45151500  1
  H  690  1  0.94178500  0.46720200  0.41243500  1
  H  693  1  0.94230400  0.55188800  0.38467700  1
  H  694  1  0.05044800  0.52675000  0.36434800  1
  H  695  1  0.99926200  0.62124600  0.49917200  1
  H  696  1  0.00074700  0.37945600  0.33269700  1
  H  701  1  0.93149000  0.39103400  0.37306700  1
  H  702  1  0.91543100  0.59545600  0.44397200  1
  H  703  1  0.05816600  0.53382100  0.52335900  1
  H  704  1  0.06286700  0.46471400  0.30841700  1
  H  711  1  0.93263800  0.90899400  0.57410300  1
  H  714  1  0.79347000  0.81671300  0.48127000  1
  H  715  1  0.83147300  0.80318600  0.50882400  1
  H  716  1  0.83833600  0.83200400  0.46936700  1
  H  725  1  0.56833100  0.09263200  0.07420060  1
  H  728  1  0.70730300  0.18444100  0.98063100  1
  H  729  1  0.66949600  0.19809500  0.00839163  1
  H  730  1  0.66232400  0.16928400  0.96898500  1
  H  739  1  0.32696200  0.65277900  0.82231300  1
  H  742  1  0.45335800  0.55410800  0.71429300  1
  H  743  1  0.40984400  0.57379000  0.70394100  1
  H  744  1  0.41385300  0.53919600  0.73892200  1
  H  753  1  0.17421600  0.34854800  0.32173600  1
  H  756  1  0.04679000  0.44625400  0.21400400  1
  H  757  1  0.09040800  0.42686000  0.20354700  1
  H  758  1  0.08628300  0.46155100  0.23841400  1
  H  767  1  0.58784400  0.92313400  0.75571900  1
  H  770  1  0.71521100  0.81501500  0.85166400  1
  H  771  1  0.69844600  0.86049500  0.85798200  1
  H  772  1  0.72068800  0.84772600  0.81577300  1
  H  781  1  0.91304200  0.07812400  0.25539400  1
  H  784  1  0.78584100  0.18581500  0.35197200  1
  H  785  1  0.80283800  0.14041000  0.35821300  1
  H  786  1  0.78035300  0.15307900  0.31610700  1
  H  795  1  0.17344700  0.64664000  0.51174000  1
  H  798  1  0.08594300  0.57089700  0.62896800  1
  H  799  1  0.08089500  0.53657500  0.59385500  1
  H  800  1  0.04175800  0.55312400  0.61801600  1
  H  809  1  0.32778600  0.35455100  0.01159360  1
  H  812  1  0.41582200  0.42909200  0.12920800  1
  H  813  1  0.42072700  0.46383700  0.09449860  1
  H  814  1  0.45996600  0.44697000  0.11827000  1
  H  823  1  0.07644900  0.09528000  0.25572600  1
  H  826  1  0.19912000  0.19961700  0.36002400  1
  H  827  1  0.16210100  0.21084300  0.33016700  1
  H  828  1  0.15484900  0.18078900  0.36864000  1
  H  837  1  0.42526800  0.90533000  0.75597100  1
  H  840  1  0.30117200  0.80201700  0.85962200  1
  H  841  1  0.33842600  0.79047800  0.83017600  1
  H  842  1  0.34544300  0.82068600  0.86857500  1
  H  851  1  0.65069400  0.31369200  0.00765363  1
  H  854  1  0.56475600  0.45521900  0.10319200  1
  H  855  1  0.54934900  0.41848500  0.07491360  1
  H  856  1  0.57779900  0.40942400  0.11419400  1
  H  865  1  0.85039400  0.68740300  0.50754800  1
  H  868  1  0.93659200  0.54670000  0.60401300  1
  H  869  1  0.95191000  0.58319600  0.57538300  1
  H  870  1  0.92354600  0.59258100  0.61465000  1
  H  879  1  0.40681400  0.08377200  0.07099560  1
  H  882  1  0.28783400  0.19622400  0.97066000  1
  H  883  1  0.30299400  0.15000100  0.96590500  1
  H  884  1  0.28085700  0.16485500  0.00747663  1
  H  893  1  0.09455300  0.91700100  0.57115800  1
  H  896  1  0.21255100  0.80488400  0.46932100  1
  H  897  1  0.19745600  0.85116800  0.46495100  1
  H  898  1  0.21983500  0.83601000  0.50628200  1
  H  907  1  0.82648800  0.34000400  0.32085100  1
  H  910  1  0.94570000  0.45751400  0.22543500  1
  H  911  1  0.89989700  0.44250800  0.21725900  1
  H  912  1  0.91132500  0.46617900  0.25906600  1
  H  921  1  0.67437700  0.66121800  0.82051500  1
  H  924  1  0.55586100  0.54368900  0.72417000  1
  H  925  1  0.60176600  0.55857600  0.71636400  1
  H  926  1  0.58994300  0.53493200  0.75807800  1
  C  1  1  0.00388000  0.98456300  0.01238300  1
  C  2  1  0.97415200  0.98132800  0.03772600  1
  C  3  1  0.97402200  0.95406400  0.06559100  1
  C  4  1  0.00518300  0.93080700  0.06986100  1
  C  5  1  0.03634500  0.93466700  0.04634900  1
  C  6  1  0.03463900  0.96029100  0.01662500  1
  C  9  1  0.00301700  0.01259000  0.98417600  1
  C  10  1  0.97158100  0.01829100  0.96115400  1
  C  11  1  0.97109400  0.04719000  0.93464000  1
  C  12  1  0.00338600  0.06869700  0.92887700  1
  C  13  1  0.03544200  0.06243800  0.95045600  1
  C  14  1  0.03431700  0.03553400  0.97864300  1
  C  23  1  0.06807800  0.08149300  0.94433100  1
  C  24  1  0.06767900  0.91333800  0.05318000  1
  C  25  1  0.94444500  0.95043100  0.08941900  1
  C  26  1  0.94028900  0.05365200  0.91287600  1
  C  31  1  0.49687100  0.01662100  0.51261600  1
  C  32  1  0.52653200  0.01994600  0.53802600  1
  C  33  1  0.52661500  0.04733800  0.56576500  1
  C  34  1  0.49547800  0.07066400  0.56982400  1
  C  35  1  0.46432900  0.06667700  0.54630500  1
  C  36  1  0.46610700  0.04091800  0.51669400  1
  C  39  1  0.49784500  0.98852800  0.48446700  1
  C  40  1  0.52935500  0.98280400  0.46154800  1
  C  41  1  0.52995200  0.95386000  0.43508100  1
  C  42  1  0.49768700  0.93232500  0.42925800  1
  C  43  1  0.46555700  0.93860200  0.45072500  1
  C  44  1  0.46657200  0.96556100  0.47886500  1
  C  53  1  0.43294100  0.91953700  0.44450100  1
  C  54  1  0.43303700  0.08815100  0.55288300  1
  C  55  1  0.55615400  0.05106200  0.58962800  1
  C  56  1  0.56079700  0.94746700  0.41333400  1
  C  61  1  0.26582200  0.74727200  0.26360100  1
  C  62  1  0.27038800  0.71748100  0.28866300  1
  C  63  1  0.29825800  0.71777100  0.31592400  1
  C  64  1  0.32053900  0.74965500  0.32019300  1
  C  65  1  0.31529600  0.78089200  0.29706000  1
  C  66  1  0.28932400  0.77865200  0.26768600  1
  C  69  1  0.23761600  0.74561000  0.23556500  1
  C  70  1  0.23210100  0.71374500  0.21305700  1
  C  71  1  0.20307300  0.71253200  0.18671900  1
  C  72  1  0.18149700  0.74463900  0.18023600  1
  C  73  1  0.18746600  0.77702900  0.20135500  1
  C  74  1  0.21428100  0.77655100  0.22963200  1
  C  83  1  0.16857700  0.80949400  0.19424800  1
  C  84  1  0.33610000  0.81260400  0.30350600  1
  C  85  1  0.30402000  0.68719800  0.33809400  1
  C  86  1  0.19629600  0.68104600  0.16605100  1
  C  91  1  0.23552200  0.25365500  0.76328400  1
  C  92  1  0.23075200  0.28362500  0.78810300  1
  C  93  1  0.20281900  0.28343700  0.81530800  1
  C  94  1  0.18071300  0.25145900  0.81980200  1
  C  95  1  0.18614200  0.22008500  0.79690700  1
  C  96  1  0.21216000  0.22220000  0.76757000  1
  C  99  1  0.26383200  0.25520100  0.73534000  1
  C  100  1  0.26934900  0.28693800  0.71265600  1
  C  101  1  0.29857300  0.28813200  0.68653400  1
  C  102  1  0.32038900  0.25611200  0.68044600  1
  C  103  1  0.31438100  0.22380000  0.70167900  1
  C  104  1  0.28733000  0.22431800  0.72973300  1
  C  113  1  0.33359500  0.19135900  0.69502000  1
  C  114  1  0.16563700  0.18824800  0.80371500  1
  C  115  1  0.19690700  0.31412900  0.83729600  1
  C  116  1  0.30532200  0.31953500  0.66573000  1
  C  121  1  0.73327500  0.24377800  0.73824400  1
  C  122  1  0.72783300  0.27288500  0.71257300  1
  C  123  1  0.69918500  0.27161600  0.68612300  1
  C  124  1  0.67660200  0.23974800  0.68376900  1
  C  125  1  0.68244500  0.20942200  0.70791100  1
  C  126  1  0.70957000  0.21239000  0.73610900  1
  C  129  1  0.76308200  0.24553400  0.76445900  1
  C  130  1  0.76935600  0.27700000  0.78727100  1
  C  131  1  0.79944500  0.27788200  0.81247200  1
  C  132  1  0.82179000  0.24592400  0.81694000  1
  C  133  1  0.81536100  0.21409600  0.79510700  1
  C  134  1  0.78702200  0.21477400  0.76840500  1
  C  143  1  0.83502300  0.18170700  0.80040200  1
  C  144  1  0.66207800  0.17726700  0.70260500  1
  C  145  1  0.69383400  0.30045000  0.66169900  1
  C  146  1  0.80599600  0.30858200  0.83445400  1
  C  151  1  0.76784600  0.75782300  0.23817200  1
  C  152  1  0.77331600  0.72876800  0.21245200  1
  C  153  1  0.80206400  0.73004000  0.18610300  1
  C  154  1  0.82474800  0.76184900  0.18394800  1
  C  155  1  0.81884500  0.79215400  0.20810800  1
  C  156  1  0.79160600  0.78917300  0.23619600  1
  C  159  1  0.73802800  0.75602000  0.26436700  1
  C  160  1  0.73181200  0.72452600  0.28715100  1
  C  161  1  0.70169800  0.72355600  0.31231500  1
  C  162  1  0.67923500  0.75543700  0.31674800  1
  C  163  1  0.68564700  0.78732600  0.29499500  1
  C  164  1  0.71404400  0.78674300  0.26834300  1
  C  173  1  0.66575500  0.81956900  0.30013000  1
  C  174  1  0.83940900  0.82421200  0.20310100  1
  C  175  1  0.80743100  0.70124500  0.16162700  1
  C  176  1  0.69520000  0.69281900  0.33424500  1
  C  181  1  0.50683700  0.48488200  0.51307700  1
  C  182  1  0.47727800  0.48097800  0.53846600  1
  C  183  1  0.47722600  0.45287900  0.56547800  1
  C  184  1  0.50834100  0.42935400  0.56877400  1
  C  185  1  0.53926000  0.43376500  0.54503600  1
  C  186  1  0.53753700  0.46042200  0.51625700  1
  C  189  1  0.50566400  0.51359700  0.48569500  1
  C  190  1  0.47429500  0.51916000  0.46257600  1
  C  191  1  0.47354000  0.54848700  0.43656600  1
  C  192  1  0.50525500  0.57104900  0.43189000  1
  C  193  1  0.53737700  0.56465100  0.45336300  1
  C  194  1  0.53665200  0.53707800  0.48088400  1
  C  203  1  0.56981900  0.58386000  0.44717800  1
  C  204  1  0.57030300  0.41174700  0.55053500  1
  C  205  1  0.44741800  0.44881200  0.58896400  1
  C  206  1  0.44308300  0.55416900  0.41414700  1
  C  211  1  0.99435700  0.51617400  0.01296300  1
  C  212  1  0.02405400  0.52015300  0.03818400  1
  C  213  1  0.02415300  0.54818500  0.06526800  1
  C  214  1  0.99295200  0.57156100  0.06880600  1
  C  215  1  0.96193100  0.56710600  0.04521400  1
  C  216  1  0.96357900  0.54050400  0.01638000  1
  C  219  1  0.99543500  0.48742300  0.98560500  1
  C  220  1  0.02668200  0.48187400  0.96231800  1
  C  221  1  0.02740900  0.45241800  0.93644500  1
  C  222  1  0.99576700  0.42968300  0.93209900  1
  C  223  1  0.96373100  0.43606800  0.95371600  1
  C  224  1  0.96451300  0.46380100  0.98107900  1
  C  233  1  0.93130800  0.41654400  0.94801200  1
  C  234  1  0.93076900  0.58890100  0.05106100  1
  C  235  1  0.05403700  0.55228600  0.08866600  1
  C  236  1  0.05773600  0.44677700  0.91383800  1
  C  241  1  0.85297400  0.86481900  0.15393800  1
  C  243  1  0.90838600  0.90028700  0.14775800  1
  C  244  1  0.90016500  0.90718600  0.11024000  1
  C  246  1  0.84471200  0.87168200  0.11638300  1
  C  249  1  0.81991200  0.82582100  0.07775000  1
  C  255  1  0.64807500  0.13661800  0.65361700  1
  C  257  1  0.59255900  0.10126000  0.64774100  1
  C  258  1  0.60061300  0.09425700  0.61020500  1
  C  260  1  0.65616900  0.12964900  0.61604500  1
  C  263  1  0.68089400  0.17541900  0.57726500  1
  C  269  1  0.39957800  0.59904600  0.39486300  1
  C  271  1  0.34653600  0.63853900  0.39301900  1
  C  272  1  0.35162900  0.64420400  0.35473400  1
  C  274  1  0.40428100  0.60397800  0.35633500  1
  C  277  1  0.42722200  0.56316900  0.31150800  1
  C  283  1  0.10135500  0.40198000  0.89450200  1
  C  285  1  0.15459500  0.36279700  0.89251400  1
  C  286  1  0.14934800  0.35698200  0.85427100  1
  C  288  1  0.09647400  0.39697000  0.85601600  1
  C  291  1  0.07304200  0.43743100  0.81114400  1
  C  297  1  0.65016600  0.85739500  0.35143000  1
  C  299  1  0.60476400  0.90520600  0.35474800  1
  C  300  1  0.60224700  0.90052200  0.39343600  1
  C  302  1  0.64852300  0.85337800  0.39022600  1
  C  305  1  0.70216500  0.83835200  0.42298600  1
  C  311  1  0.85071500  0.14380300  0.85143400  1
  C  313  1  0.89615900  0.09601900  0.85450900  1
  C  314  1  0.89878300  0.10062700  0.89319700  1
  C  316  1  0.85249300  0.14775500  0.89023000  1
  C  319  1  0.79892800  0.16253600  0.92323700  1
  C  325  1  0.09900100  0.59537900  0.10894900  1
  C  327  1  0.15323200  0.63315200  0.11135700  1
  C  328  1  0.14754300  0.63956200  0.14944700  1
  C  330  1  0.09369000  0.60096700  0.14730300  1
  C  333  1  0.06841000  0.56107600  0.19164200  1
  C  339  1  0.40232600  0.40562500  0.60888400  1
  C  341  1  0.34802600  0.36799500  0.61121500  1
  C  342  1  0.35379100  0.36135600  0.64925300  1
  C  344  1  0.40775400  0.39986800  0.64719100  1
  C  347  1  0.43325600  0.43917600  0.69192400  1
  C  353  1  0.14941900  0.14873400  0.85332000  1
  C  355  1  0.09784800  0.10747300  0.85483200  1
  C  356  1  0.10361700  0.10116000  0.89281800  1
  C  358  1  0.15552100  0.14208000  0.89132800  1
  C  361  1  0.17424000  0.18880200  0.93213200  1
  C  367  1  0.35195800  0.85224700  0.35315000  1
  C  369  1  0.40370600  0.89328000  0.35494400  1
  C  370  1  0.39763100  0.89978400  0.39285300  1
  C  372  1  0.34555100  0.85909300  0.39107200  1
  C  375  1  0.32622600  0.81265700  0.43191800  1
  C  381  1  0.60954200  0.39487700  0.59996600  1
  C  383  1  0.64292700  0.33802500  0.60496500  1
  C  384  1  0.65058300  0.34542400  0.64251500  1
  C  386  1  0.61711800  0.40227900  0.63756000  1
  C  389  1  0.57253700  0.42858300  0.67666900  1
  C  395  1  0.89165700  0.60632300  0.10040900  1
  C  397  1  0.85814500  0.66313700  0.10500200  1
  C  398  1  0.85048800  0.65600300  0.14260500  1
  C  400  1  0.88408100  0.59917300  0.13805100  1
  C  403  1  0.92876700  0.57322800  0.17727800  1
  C  409  1  0.35060000  0.15444900  0.64339400  1
  C  411  1  0.39217300  0.10322700  0.64188200  1
  C  412  1  0.39529400  0.10644200  0.60318200  1
  C  414  1  0.35261900  0.15696700  0.60447600  1
  C  417  1  0.29990300  0.17287800  0.57066000  1
  C  423  1  0.15052800  0.84630200  0.14271400  1
  C  425  1  0.10905400  0.89760700  0.14181800  1
  C  426  1  0.10560900  0.89459900  0.10312900  1
  C  428  1  0.14816900  0.84397900  0.10380300  1
  C  431  1  0.20062700  0.82816300  0.06954300  1
  C  437  1  0.89517700  0.39915700  0.89626400  1
  C  439  1  0.84595600  0.35531500  0.89253100  1
  C  440  1  0.85302700  0.35017400  0.85445600  1
  C  442  1  0.90166100  0.39489400  0.85801500  1
  C  445  1  0.92102500  0.44621300  0.82379400  1
  C  451  1  0.60587800  0.60194100  0.39540000  1
  C  453  1  0.65509000  0.64581400  0.39204000  1
  C  454  1  0.64833000  0.65092900  0.35390700  1
  C  456  1  0.59968100  0.60618800  0.35710400  1
  C  459  1  0.58045600  0.55492400  0.32272800  1
  C  465  1  0.00388000  0.98456300  0.42714100  1
  C  466  1  0.97415200  0.98132800  0.45248400  1
  C  467  1  0.97402200  0.95406400  0.48034900  1
  C  468  1  0.00518300  0.93080700  0.48461900  1
  C  469  1  0.03634500  0.93466700  0.46110700  1
  C  470  1  0.03463900  0.96029100  0.43138300  1
  C  473  1  0.00301700  0.01259000  0.39893400  1
  C  474  1  0.97158100  0.01829100  0.37591200  1
  C  475  1  0.97109400  0.04719000  0.34939800  1
  C  476  1  0.00338600  0.06869700  0.34363500  1
  C  477  1  0.03544200  0.06243800  0.36521400  1
  C  478  1  0.03431700  0.03553400  0.39340100  1
  C  487  1  0.06807800  0.08149300  0.35908900  1
  C  488  1  0.06767900  0.91333800  0.46793800  1
  C  489  1  0.94444500  0.95043100  0.50417700  1
  C  490  1  0.94028900  0.05365200  0.32763400  1
  C  495  1  0.49687100  0.01662100  0.92737400  1
  C  496  1  0.52653200  0.01994600  0.95278400  1
  C  497  1  0.52661500  0.04733800  0.98052300  1
  C  498  1  0.49547800  0.07066400  0.98458200  1
  C  499  1  0.46432900  0.06667700  0.96106300  1
  C  500  1  0.46610700  0.04091800  0.93145200  1
  C  503  1  0.49784500  0.98852800  0.89922500  1
  C  504  1  0.52935500  0.98280400  0.87630600  1
  C  505  1  0.52995200  0.95386000  0.84983900  1
  C  506  1  0.49768700  0.93232500  0.84401600  1
  C  507  1  0.46555700  0.93860200  0.86548300  1
  C  508  1  0.46657200  0.96556100  0.89362300  1
  C  517  1  0.43294100  0.91953700  0.85925900  1
  C  518  1  0.43303700  0.08815100  0.96764100  1
  C  519  1  0.55615400  0.05106200  0.00438563  1
  C  520  1  0.56079700  0.94746700  0.82809200  1
  C  525  1  0.26582200  0.74727200  0.67835900  1
  C  526  1  0.27038800  0.71748100  0.70342100  1
  C  527  1  0.29825800  0.71777100  0.73068200  1
  C  528  1  0.32053900  0.74965500  0.73495100  1
  C  529  1  0.31529600  0.78089200  0.71181800  1
  C  530  1  0.28932400  0.77865200  0.68244400  1
  C  533  1  0.23761600  0.74561000  0.65032300  1
  C  534  1  0.23210100  0.71374500  0.62781500  1
  C  535  1  0.20307300  0.71253200  0.60147700  1
  C  536  1  0.18149700  0.74463900  0.59499400  1
  C  537  1  0.18746600  0.77702900  0.61611300  1
  C  538  1  0.21428100  0.77655100  0.64439000  1
  C  547  1  0.16857700  0.80949400  0.60900600  1
  C  548  1  0.33610000  0.81260400  0.71826400  1
  C  549  1  0.30402000  0.68719800  0.75285200  1
  C  550  1  0.19629600  0.68104600  0.58080900  1
  C  555  1  0.23552200  0.25365500  0.17804200  1
  C  556  1  0.23075200  0.28362500  0.20286100  1
  C  557  1  0.20281900  0.28343700  0.23006600  1
  C  558  1  0.18071300  0.25145900  0.23456000  1
  C  559  1  0.18614200  0.22008500  0.21166500  1
  C  560  1  0.21216000  0.22220000  0.18232800  1
  C  563  1  0.26383200  0.25520100  0.15009800  1
  C  564  1  0.26934900  0.28693800  0.12741400  1
  C  565  1  0.29857300  0.28813200  0.10129200  1
  C  566  1  0.32038900  0.25611200  0.09520360  1
  C  567  1  0.31438100  0.22380000  0.11643700  1
  C  568  1  0.28733000  0.22431800  0.14449100  1
  C  577  1  0.33359500  0.19135900  0.10977800  1
  C  578  1  0.16563700  0.18824800  0.21847300  1
  C  579  1  0.19690700  0.31412900  0.25205400  1
  C  580  1  0.30532200  0.31953500  0.08048760  1
  C  585  1  0.73327500  0.24377800  0.15300200  1
  C  586  1  0.72783300  0.27288500  0.12733100  1
  C  587  1  0.69918500  0.27161600  0.10088100  1
  C  588  1  0.67660200  0.23974800  0.09852660  1
  C  589  1  0.68244500  0.20942200  0.12266900  1
  C  590  1  0.70957000  0.21239000  0.15086700  1
  C  593  1  0.76308200  0.24553400  0.17921700  1
  C  594  1  0.76935600  0.27700000  0.20202900  1
  C  595  1  0.79944500  0.27788200  0.22723000  1
  C  596  1  0.82179000  0.24592400  0.23169800  1
  C  597  1  0.81536100  0.21409600  0.20986500  1
  C  598  1  0.78702200  0.21477400  0.18316300  1
  C  607  1  0.83502300  0.18170700  0.21516000  1
  C  608  1  0.66207800  0.17726700  0.11736300  1
  C  609  1  0.69383400  0.30045000  0.07645660  1
  C  610  1  0.80599600  0.30858200  0.24921200  1
  C  615  1  0.76784600  0.75782300  0.65293000  1
  C  616  1  0.77331600  0.72876800  0.62721000  1
  C  617  1  0.80206400  0.73004000  0.60086100  1
  C  618  1  0.82474800  0.76184900  0.59870600  1
  C  619  1  0.81884500  0.79215400  0.62286600  1
  C  620  1  0.79160600  0.78917300  0.65095400  1
  C  623  1  0.73802800  0.75602000  0.67912500  1
  C  624  1  0.73181200  0.72452600  0.70190900  1
  C  625  1  0.70169800  0.72355600  0.72707300  1
  C  626  1  0.67923500  0.75543700  0.73150600  1
  C  627  1  0.68564700  0.78732600  0.70975300  1
  C  628  1  0.71404400  0.78674300  0.68310100  1
  C  637  1  0.66575500  0.81956900  0.71488800  1
  C  638  1  0.83940900  0.82421200  0.61785900  1
  C  639  1  0.80743100  0.70124500  0.57638500  1
  C  640  1  0.69520000  0.69281900  0.74900300  1
  C  645  1  0.50683700  0.48488200  0.92783500  1
  C  646  1  0.47727800  0.48097800  0.95322400  1
  C  647  1  0.47722600  0.45287900  0.98023600  1
  C  648  1  0.50834100  0.42935400  0.98353200  1
  C  649  1  0.53926000  0.43376500  0.95979400  1
  C  650  1  0.53753700  0.46042200  0.93101500  1
  C  653  1  0.50566400  0.51359700  0.90045300  1
  C  654  1  0.47429500  0.51916000  0.87733400  1
  C  655  1  0.47354000  0.54848700  0.85132400  1
  C  656  1  0.50525500  0.57104900  0.84664800  1
  C  657  1  0.53737700  0.56465100  0.86812100  1
  C  658  1  0.53665200  0.53707800  0.89564200  1
  C  667  1  0.56981900  0.58386000  0.86193600  1
  C  668  1  0.57030300  0.41174700  0.96529300  1
  C  669  1  0.44741800  0.44881200  0.00372163  1
  C  670  1  0.44308300  0.55416900  0.82890500  1
  C  675  1  0.99435700  0.51617400  0.42772100  1
  C  676  1  0.02405400  0.52015300  0.45294200  1
  C  677  1  0.02415300  0.54818500  0.48002600  1
  C  678  1  0.99295200  0.57156100  0.48356400  1
  C  679  1  0.96193100  0.56710600  0.45997200  1
  C  680  1  0.96357900  0.54050400  0.43113800  1
  C  683  1  0.99543500  0.48742300  0.40036300  1
  C  684  1  0.02668200  0.48187400  0.37707600  1
  C  685  1  0.02740900  0.45241800  0.35120300  1
  C  686  1  0.99576700  0.42968300  0.34685700  1
  C  687  1  0.96373100  0.43606800  0.36847400  1
  C  688  1  0.96451300  0.46380100  0.39583700  1
  C  697  1  0.93130800  0.41654400  0.36277000  1
  C  698  1  0.93076900  0.58890100  0.46581900  1
  C  699  1  0.05403700  0.55228600  0.50342400  1
  C  700  1  0.05773600  0.44677700  0.32859600  1
  C  705  1  0.85297400  0.86481900  0.56869600  1
  C  707  1  0.90838600  0.90028700  0.56251600  1
  C  708  1  0.90016500  0.90718600  0.52499800  1
  C  710  1  0.84471200  0.87168200  0.53114100  1
  C  713  1  0.81991200  0.82582100  0.49250800  1
  C  719  1  0.64807500  0.13661800  0.06837460  1
  C  721  1  0.59255900  0.10126000  0.06249860  1
  C  722  1  0.60061300  0.09425700  0.02496260  1
  C  724  1  0.65616900  0.12964900  0.03080260  1
  C  727  1  0.68089400  0.17541900  0.99202300  1
  C  733  1  0.39957800  0.59904600  0.80962100  1
  C  735  1  0.34653600  0.63853900  0.80777700  1
  C  736  1  0.35162900  0.64420400  0.76949200  1
  C  738  1  0.40428100  0.60397800  0.77109300  1
  C  741  1  0.42722200  0.56316900  0.72626600  1
  C  747  1  0.10135500  0.40198000  0.30926000  1
  C  749  1  0.15459500  0.36279700  0.30727200  1
  C  750  1  0.14934800  0.35698200  0.26902900  1
  C  752  1  0.09647400  0.39697000  0.27077400  1
  C  755  1  0.07304200  0.43743100  0.22590200  1
  C  761  1  0.65016600  0.85739500  0.76618800  1
  C  763  1  0.60476400  0.90520600  0.76950600  1
  C  764  1  0.60224700  0.90052200  0.80819400  1
  C  766  1  0.64852300  0.85337800  0.80498400  1
  C  769  1  0.70216500  0.83835200  0.83774400  1
  C  775  1  0.85071500  0.14380300  0.26619200  1
  C  777  1  0.89615900  0.09601900  0.26926700  1
  C  778  1  0.89878300  0.10062700  0.30795500  1
  C  780  1  0.85249300  0.14775500  0.30498800  1
  C  783  1  0.79892800  0.16253600  0.33799500  1
  C  789  1  0.09900100  0.59537900  0.52370700  1
  C  791  1  0.15323200  0.63315200  0.52611500  1
  C  792  1  0.14754300  0.63956200  0.56420500  1
  C  794  1  0.09369000  0.60096700  0.56206100  1
  C  797  1  0.06841000  0.56107600  0.60640000  1
  C  803  1  0.40232600  0.40562500  0.02364160  1
  C  805  1  0.34802600  0.36799500  0.02597260  1
  C  806  1  0.35379100  0.36135600  0.06401060  1
  C  808  1  0.40775400  0.39986800  0.06194860  1
  C  811  1  0.43325600  0.43917600  0.10668200  1
  C  817  1  0.14941900  0.14873400  0.26807800  1
  C  819  1  0.09784800  0.10747300  0.26959000  1
  C  820  1  0.10361700  0.10116000  0.30757600  1
  C  822  1  0.15552100  0.14208000  0.30608600  1
  C  825  1  0.17424000  0.18880200  0.34689000  1
  C  831  1  0.35195800  0.85224700  0.76790800  1
  C  833  1  0.40370600  0.89328000  0.76970200  1
  C  834  1  0.39763100  0.89978400  0.80761100  1
  C  836  1  0.34555100  0.85909300  0.80583000  1
  C  839  1  0.32622600  0.81265700  0.84667600  1
  C  845  1  0.60954200  0.39487700  0.01472360  1
  C  847  1  0.64292700  0.33802500  0.01972260  1
  C  848  1  0.65058300  0.34542400  0.05727260  1
  C  850  1  0.61711800  0.40227900  0.05231760  1
  C  853  1  0.57253700  0.42858300  0.09142660  1
  C  859  1  0.89165700  0.60632300  0.51516700  1
  C  861  1  0.85814500  0.66313700  0.51976000  1
  C  862  1  0.85048800  0.65600300  0.55736300  1
  C  864  1  0.88408100  0.59917300  0.55280900  1
  C  867  1  0.92876700  0.57322800  0.59203600  1
  C  873  1  0.35060000  0.15444900  0.05815160  1
  C  875  1  0.39217300  0.10322700  0.05663960  1
  C  876  1  0.39529400  0.10644200  0.01793960  1
  C  878  1  0.35261900  0.15696700  0.01923360  1
  C  881  1  0.29990300  0.17287800  0.98541800  1
  C  887  1  0.15052800  0.84630200  0.55747200  1
  C  889  1  0.10905400  0.89760700  0.55657600  1
  C  890  1  0.10560900  0.89459900  0.51788700  1
  C  892  1  0.14816900  0.84397900  0.51856100  1
  C  895  1  0.20062700  0.82816300  0.48430100  1
  C  901  1  0.89517700  0.39915700  0.31102200  1
  C  903  1  0.84595600  0.35531500  0.30728900  1
  C  904  1  0.85302700  0.35017400  0.26921400  1
  C  906  1  0.90166100  0.39489400  0.27277300  1
  C  909  1  0.92102500  0.44621300  0.23855200  1
  C  915  1  0.60587800  0.60194100  0.81015800  1
  C  917  1  0.65509000  0.64581400  0.80679800  1
  C  918  1  0.64833000  0.65092900  0.76866500  1
  C  920  1  0.59968100  0.60618800  0.77186200  1
  C  923  1  0.58045600  0.55492400  0.73748600  1
  N  242  1  0.88485800  0.87915300  0.16792500  1
  N  245  1  0.86894200  0.89199200  0.09600600  1
  N  253  1  0.83158100  0.84220700  0.17316900  1
  N  254  1  0.92490700  0.92086700  0.08715100  1
  N  256  1  0.61621100  0.12239400  0.66776500  1
  N  259  1  0.63181400  0.10934300  0.59581600  1
  N  267  1  0.66958200  0.15928200  0.67265100  1
  N  268  1  0.57578600  0.08055300  0.58721900  1
  N  270  1  0.37133800  0.61733400  0.41160000  1
  N  273  1  0.38091300  0.62734900  0.33844200  1
  N  281  1  0.42569300  0.58505700  0.41625400  1
  N  282  1  0.33515700  0.67037300  0.33530100  1
  N  284  1  0.12976700  0.38391100  0.91117300  1
  N  287  1  0.11982800  0.37357800  0.83811700  1
  N  295  1  0.07530900  0.41598800  0.91598900  1
  N  296  1  0.16549700  0.33051500  0.83498700  1
  N  298  1  0.62815900  0.88326800  0.33524000  1
  N  301  1  0.62364600  0.87408200  0.40929900  1
  N  309  1  0.67167000  0.83522000  0.33185900  1
  N  310  1  0.57595500  0.91535400  0.41400300  1
  N  312  1  0.87268300  0.11797400  0.83511700  1
  N  315  1  0.87742000  0.12701700  0.90919000  1
  N  323  1  0.82909200  0.16595300  0.83199300  1
  N  324  1  0.92512800  0.08575800  0.91365600  1
  N  326  1  0.12811900  0.61254200  0.09255600  1
  N  329  1  0.11739100  0.62389200  0.16535900  1
  N  337  1  0.07277500  0.58239400  0.08711400  1
  N  338  1  0.16429600  0.66584600  0.16851900  1
  N  340  1  0.37312200  0.38866400  0.59245400  1
  N  343  1  0.38406600  0.37683800  0.66513600  1
  N  351  1  0.42836700  0.41892200  0.58699500  1
  N  352  1  0.33722000  0.33493300  0.66827700  1
  N  354  1  0.12052000  0.13123000  0.83671000  1
  N  357  1  0.13250900  0.11851600  0.90948300  1
  N  365  1  0.17041200  0.17296900  0.83570300  1
  N  366  1  0.08104900  0.07889400  0.91097100  1
  N  368  1  0.38107900  0.86955600  0.33672200  1
  N  371  1  0.36850900  0.88263200  0.40933500  1
  N  379  1  0.33097100  0.82809100  0.33539500  1
  N  380  1  0.42010500  0.92208100  0.41108300  1
  N  382  1  0.62249300  0.36266100  0.58537800  1
  N  385  1  0.63682400  0.37705300  0.65731300  1
  N  393  1  0.58772300  0.41757000  0.58126300  1
  N  394  1  0.66456900  0.32028400  0.66503900  1
  N  396  1  0.87864700  0.63840900  0.08558900  1
  N  399  1  0.86433800  0.62450900  0.15761900  1
  N  407  1  0.91352300  0.58351100  0.08190900  1
  N  408  1  0.83656900  0.68124200  0.16505900  1
  N  410  1  0.37038700  0.12742700  0.66052900  1
  N  413  1  0.37552700  0.13351800  0.58609400  1
  N  421  1  0.32979000  0.17803700  0.66201100  1
  N  422  1  0.41845200  0.08446500  0.58540000  1
  N  424  1  0.13094000  0.87326700  0.16015900  1
  N  427  1  0.12517200  0.86757300  0.08573300  1
  N  435  1  0.17137100  0.82248400  0.16098000  1
  N  436  1  0.08228300  0.91664500  0.08567600  1
  N  438  1  0.86746300  0.37916000  0.91200800  1
  N  441  1  0.88121300  0.36966200  0.83913500  1
  N  449  1  0.91656200  0.42146000  0.91577900  1
  N  450  1  0.83817800  0.32362400  0.83419700  1
  N  452  1  0.63344000  0.62197300  0.41135900  1
  N  455  1  0.62023100  0.63145700  0.33839800  1
  N  463  1  0.58428800  0.57964300  0.41469100  1
  N  464  1  0.66310600  0.67760100  0.33377200  1
  N  706  1  0.88485800  0.87915300  0.58268300  1
  N  709  1  0.86894200  0.89199200  0.51076400  1
  N  717  1  0.83158100  0.84220700  0.58792700  1
  N  718  1  0.92490700  0.92086700  0.50190900  1
  N  720  1  0.61621100  0.12239400  0.08252260  1
  N  723  1  0.63181400  0.10934300  0.01057360  1
  N  731  1  0.66958200  0.15928200  0.08740860  1
  N  732  1  0.57578600  0.08055300  0.00197663  1
  N  734  1  0.37133800  0.61733400  0.82635800  1
  N  737  1  0.38091300  0.62734900  0.75320000  1
  N  745  1  0.42569300  0.58505700  0.83101200  1
  N  746  1  0.33515700  0.67037300  0.75005900  1
  N  748  1  0.12976700  0.38391100  0.32593100  1
  N  751  1  0.11982800  0.37357800  0.25287500  1
  N  759  1  0.07530900  0.41598800  0.33074700  1
  N  760  1  0.16549700  0.33051500  0.24974500  1
  N  762  1  0.62815900  0.88326800  0.74999800  1
  N  765  1  0.62364600  0.87408200  0.82405700  1
  N  773  1  0.67167000  0.83522000  0.74661700  1
  N  774  1  0.57595500  0.91535400  0.82876100  1
  N  776  1  0.87268300  0.11797400  0.24987500  1
  N  779  1  0.87742000  0.12701700  0.32394800  1
  N  787  1  0.82909200  0.16595300  0.24675100  1
  N  788  1  0.92512800  0.08575800  0.32841400  1
  N  790  1  0.12811900  0.61254200  0.50731400  1
  N  793  1  0.11739100  0.62389200  0.58011700  1
  N  801  1  0.07277500  0.58239400  0.50187200  1
  N  802  1  0.16429600  0.66584600  0.58327700  1
  N  804  1  0.37312200  0.38866400  0.00721163  1
  N  807  1  0.38406600  0.37683800  0.07989360  1
  N  815  1  0.42836700  0.41892200  0.00175263  1
  N  816  1  0.33722000  0.33493300  0.08303460  1
  N  818  1  0.12052000  0.13123000  0.25146800  1
  N  821  1  0.13250900  0.11851600  0.32424100  1
  N  829  1  0.17041200  0.17296900  0.25046100  1
  N  830  1  0.08104900  0.07889400  0.32572900  1
  N  832  1  0.38107900  0.86955600  0.75148000  1
  N  835  1  0.36850900  0.88263200  0.82409300  1
  N  843  1  0.33097100  0.82809100  0.75015300  1
  N  844  1  0.42010500  0.92208100  0.82584100  1
  N  846  1  0.62249300  0.36266100  0.00013563  1
  N  849  1  0.63682400  0.37705300  0.07207060  1
  N  857  1  0.58772300  0.41757000  0.99602100  1
  N  858  1  0.66456900  0.32028400  0.07979660  1
  N  860  1  0.87864700  0.63840900  0.50034700  1
  N  863  1  0.86433800  0.62450900  0.57237700  1
  N  871  1  0.91352300  0.58351100  0.49666700  1
  N  872  1  0.83656900  0.68124200  0.57981700  1
  N  874  1  0.37038700  0.12742700  0.07528660  1
  N  877  1  0.37552700  0.13351800  0.00085163  1
  N  885  1  0.32979000  0.17803700  0.07676860  1
  N  886  1  0.41845200  0.08446500  0.00015763  1
  N  888  1  0.13094000  0.87326700  0.57491700  1
  N  891  1  0.12517200  0.86757300  0.50049100  1
  N  899  1  0.17137100  0.82248400  0.57573800  1
  N  900  1  0.08228300  0.91664500  0.50043400  1
  N  902  1  0.86746300  0.37916000  0.32676600  1
  N  905  1  0.88121300  0.36966200  0.25389300  1
  N  913  1  0.91656200  0.42146000  0.33053700  1
  N  914  1  0.83817800  0.32362400  0.24895500  1
  N  916  1  0.63344000  0.62197300  0.82611700  1
  N  919  1  0.62023100  0.63145700  0.75315600  1
  N  927  1  0.58428800  0.57964300  0.82944900  1
  N  928  1  0.66310600  0.67760100  0.74853000  1
  O  8  1  0.00547600  0.90538300  0.09792800  1
  O  15  1  0.00380400  0.09617800  0.90285800  1
  O  17  1  0.06344800  0.96170100  0.99225800  1
  O  18  1  0.94115100  0.99619500  0.96444100  1
  O  38  1  0.49516800  0.09626000  0.59773200  1
  O  45  1  0.49735800  0.90481600  0.40326600  1
  O  47  1  0.43739500  0.03943300  0.49222100  1
  O  48  1  0.55974900  0.00494300  0.46487400  1
  O  68  1  0.34649400  0.75045400  0.34773300  1
  O  75  1  0.15415100  0.74450100  0.15407600  1
  O  77  1  0.28704300  0.80747000  0.24339100  1
  O  78  1  0.25456800  0.68360600  0.21647700  1
  O  98  1  0.15478600  0.25068900  0.84736900  1
  O  105  1  0.34793700  0.25619900  0.65450400  1
  O  107  1  0.21465800  0.19315500  0.74356900  1
  O  108  1  0.24671200  0.31698800  0.71572500  1
  O  128  1  0.64993600  0.23783700  0.65699000  1
  O  135  1  0.85001500  0.24536300  0.84213200  1
  O  137  1  0.71311500  0.18405900  0.76082900  1
  O  138  1  0.74649500  0.30695700  0.78511400  1
  O  158  1  0.85156900  0.76374300  0.15732500  1
  O  165  1  0.65091200  0.75585400  0.34183500  1
  O  167  1  0.78801500  0.81742400  0.26100300  1
  O  168  1  0.75473700  0.69461700  0.28497700  1
  O  188  1  0.50885000  0.40311100  0.59602600  1
  O  195  1  0.50568400  0.59765700  0.40500800  1
  O  197  1  0.56621300  0.46264600  0.49179200  1
  O  198  1  0.44436000  0.49628800  0.46507300  1
  O  218  1  0.99245100  0.59768800  0.09617200  1
  O  225  1  0.99525800  0.40293400  0.90536300  1
  O  227  1  0.93471700  0.53817300  0.99214500  1
  O  228  1  0.05654500  0.50486800  0.96454100  1
  O  248  1  0.81339500  0.85803100  0.10011300  1
  O  262  1  0.68743600  0.14319900  0.59960100  1
  O  276  1  0.43508900  0.59135300  0.33839500  1
  O  290  1  0.06549200  0.40928600  0.83816400  1
  O  304  1  0.66734000  0.82607300  0.40835900  1
  O  318  1  0.83363500  0.17497400  0.90845500  1
  O  332  1  0.06210100  0.58962200  0.16472800  1
  O  346  1  0.43941900  0.41095600  0.66463300  1
  O  360  1  0.18464000  0.15764100  0.90977600  1
  O  374  1  0.31618600  0.84375500  0.40931600  1
  O  388  1  0.60503500  0.43392800  0.65441000  1
  O  402  1  0.89622200  0.56767300  0.15514200  1
  O  416  1  0.33503000  0.18435300  0.58525900  1
  O  430  1  0.16557200  0.81667200  0.08430300  1
  O  444  1  0.93080700  0.41161700  0.84068600  1
  O  458  1  0.57062900  0.58954500  0.33954300  1
  O  472  1  0.00547600  0.90538300  0.51268600  1
  O  479  1  0.00380400  0.09617800  0.31761600  1
  O  481  1  0.06344800  0.96170100  0.40701600  1
  O  482  1  0.94115100  0.99619500  0.37919900  1
  O  502  1  0.49516800  0.09626000  0.01248960  1
  O  509  1  0.49735800  0.90481600  0.81802400  1
  O  511  1  0.43739500  0.03943300  0.90697900  1
  O  512  1  0.55974900  0.00494300  0.87963200  1
  O  532  1  0.34649400  0.75045400  0.76249100  1
  O  539  1  0.15415100  0.74450100  0.56883400  1
  O  541  1  0.28704300  0.80747000  0.65814900  1
  O  542  1  0.25456800  0.68360600  0.63123500  1
  O  562  1  0.15478600  0.25068900  0.26212700  1
  O  569  1  0.34793700  0.25619900  0.06926160  1
  O  571  1  0.21465800  0.19315500  0.15832700  1
  O  572  1  0.24671200  0.31698800  0.13048300  1
  O  592  1  0.64993600  0.23783700  0.07174760  1
  O  599  1  0.85001500  0.24536300  0.25689000  1
  O  601  1  0.71311500  0.18405900  0.17558700  1
  O  602  1  0.74649500  0.30695700  0.19987200  1
  O  622  1  0.85156900  0.76374300  0.57208300  1
  O  629  1  0.65091200  0.75585400  0.75659300  1
  O  631  1  0.78801500  0.81742400  0.67576100  1
  O  632  1  0.75473700  0.69461700  0.69973500  1
  O  652  1  0.50885000  0.40311100  0.01078360  1
  O  659  1  0.50568400  0.59765700  0.81976600  1
  O  661  1  0.56621300  0.46264600  0.90655000  1
  O  662  1  0.44436000  0.49628800  0.87983100  1
  O  682  1  0.99245100  0.59768800  0.51093000  1
  O  689  1  0.99525800  0.40293400  0.32012100  1
  O  691  1  0.93471700  0.53817300  0.40690300  1
  O  692  1  0.05654500  0.50486800  0.37929900  1
  O  712  1  0.81339500  0.85803100  0.51487100  1
  O  726  1  0.68743600  0.14319900  0.01435860  1
  O  740  1  0.43508900  0.59135300  0.75315300  1
  O  754  1  0.06549200  0.40928600  0.25292200  1
  O  768  1  0.66734000  0.82607300  0.82311700  1
  O  782  1  0.83363500  0.17497400  0.32321300  1
  O  796  1  0.06210100  0.58962200  0.57948600  1
  O  810  1  0.43941900  0.41095600  0.07939060  1
  O  824  1  0.18464000  0.15764100  0.32453400  1
  O  838  1  0.31618600  0.84375500  0.82407400  1
  O  852  1  0.60503500  0.43392800  0.06916760  1
  O  866  1  0.89622200  0.56767300  0.56990000  1
  O  880  1  0.33503000  0.18435300  0.00001663  1
  O  894  1  0.16557200  0.81667200  0.49906100  1
  O  908  1  0.93080700  0.41161700  0.25544400  1
  O  922  1  0.57062900  0.58954500  0.75430100  1
