# generated using pymatgen
data_H10C18N3O4
_symmetry_space_group_name_H-M   'P 1'
_cell_length_a   73.66380000
_cell_length_b   73.66380000
_cell_length_c   73.66380000
_cell_angle_alpha   90.00000000
_cell_angle_beta   90.00000000
_cell_angle_gamma   90.00000000
_symmetry_Int_Tables_number   1
_chemical_formula_structural   H10C18N3O4
_chemical_formula_sum   'H960 C1728 N288 O384'
_cell_volume   399725.96115685
_cell_formula_units_Z   96
loop_
 _symmetry_equiv_pos_site_id
 _symmetry_equiv_pos_as_xyz
  1  'x, y, z'
loop_
 _atom_site_type_symbol
 _atom_site_label
 _atom_site_symmetry_multiplicity
 _atom_site_fract_x
 _atom_site_fract_y
 _atom_site_fract_z
 _atom_site_occupancy
  H  7  1  0.23920400  0.06808300  0.41113000  1
  H  8  1  0.23710400  0.05524800  0.46648400  1
  H  15  1  0.23910100  0.13820100  0.37480700  1
  H  16  1  0.21500900  0.11396000  0.42028800  1
  H  19  1  0.24371400  0.12391700  0.44231400  1
  H  20  1  0.24096400  0.11893100  0.46385800  1
  H  21  1  0.28178000  0.09642800  0.39690900  1
  H  22  1  0.27245400  0.08715800  0.41484700  1
  H  29  1  0.74482200  0.91592500  0.41112300  1
  H  30  1  0.74691100  0.92877000  0.46647600  1
  H  37  1  0.74492900  0.84581100  0.37480400  1
  H  38  1  0.76901800  0.87005200  0.42028700  1
  H  41  1  0.74031500  0.86009600  0.44231600  1
  H  42  1  0.74306100  0.86508600  0.46386000  1
  H  43  1  0.70224900  0.88758300  0.39690500  1
  H  44  1  0.71157200  0.89685200  0.41484600  1
  H  51  1  0.74480700  0.06809500  0.64251300  1
  H  52  1  0.74689600  0.05525100  0.58716000  1
  H  59  1  0.74493600  0.13820200  0.67884000  1
  H  60  1  0.76901600  0.11396700  0.63334800  1
  H  63  1  0.74031900  0.12392700  0.61132100  1
  H  64  1  0.74306000  0.11893700  0.58977700  1
  H  65  1  0.70223000  0.09654600  0.65668400  1
  H  66  1  0.71155100  0.08727300  0.63873100  1
  H  73  1  0.23920300  0.91594100  0.64251300  1
  H  74  1  0.23709600  0.92878900  0.58716000  1
  H  81  1  0.23908600  0.84582600  0.67882900  1
  H  82  1  0.21499600  0.87006500  0.63334700  1
  H  85  1  0.24369800  0.86011300  0.61131400  1
  H  86  1  0.24092600  0.86510400  0.58977300  1
  H  87  1  0.28177100  0.88752900  0.65669500  1
  H  88  1  0.27245800  0.89682500  0.63875600  1
  H  95  1  0.37632300  0.23919400  0.10288600  1
  H  96  1  0.43167900  0.23709800  0.09005100  1
  H  103  1  0.33999800  0.23908500  0.17300100  1
  H  104  1  0.38548100  0.21499600  0.14876100  1
  H  107  1  0.40750700  0.24369900  0.15872000  1
  H  108  1  0.42905200  0.24095200  0.15373400  1
  H  109  1  0.36210300  0.28176800  0.13123600  1
  H  110  1  0.38004300  0.27244500  0.12196500  1
  H  117  1  0.37631800  0.74482200  0.95073200  1
  H  118  1  0.43167200  0.74691100  0.96357700  1
  H  125  1  0.33999800  0.74493100  0.88061900  1
  H  126  1  0.38548100  0.76902000  0.90486100  1
  H  129  1  0.40751100  0.74031800  0.89490300  1
  H  130  1  0.42905500  0.74306400  0.89989300  1
  H  131  1  0.36210100  0.70224900  0.92238800  1
  H  132  1  0.38004200  0.71157200  0.93165600  1
  H  139  1  0.60770700  0.74480700  0.10290200  1
  H  140  1  0.55235400  0.74689600  0.09005800  1
  H  147  1  0.64403300  0.74493500  0.17300900  1
  H  148  1  0.59854300  0.76901300  0.14877500  1
  H  151  1  0.57651500  0.74031600  0.15873300  1
  H  152  1  0.55497200  0.74305900  0.15374300  1
  H  153  1  0.62188000  0.70223000  0.13135000  1
  H  154  1  0.60392600  0.71155100  0.12207800  1
  H  161  1  0.60770600  0.23921300  0.95074400  1
  H  162  1  0.55235400  0.23710200  0.96359200  1
  H  169  1  0.64401900  0.23910300  0.88062600  1
  H  170  1  0.59854000  0.21500900  0.90486500  1
  H  173  1  0.57650700  0.24371100  0.89491800  1
  H  174  1  0.55496600  0.24093700  0.89990800  1
  H  175  1  0.62188900  0.28178200  0.92233700  1
  H  176  1  0.60395200  0.27246900  0.93163300  1
  H  183  1  0.06808700  0.37632300  0.27400200  1
  H  184  1  0.05525100  0.43167800  0.27190300  1
  H  191  1  0.13820500  0.34000200  0.27389900  1
  H  192  1  0.11396200  0.38548100  0.24980500  1
  H  195  1  0.12392000  0.40750800  0.27851000  1
  H  196  1  0.11893400  0.42905200  0.27576000  1
  H  197  1  0.09643300  0.36210200  0.31657800  1
  H  198  1  0.08716200  0.38004200  0.30725300  1
  H  205  1  0.91593200  0.37631900  0.77963000  1
  H  206  1  0.92877700  0.43167200  0.78171500  1
  H  213  1  0.84582300  0.33999500  0.77974400  1
  H  214  1  0.87006100  0.38548100  0.80382900  1
  H  217  1  0.86010300  0.40751000  0.77512700  1
  H  218  1  0.86509300  0.42905400  0.77787200  1
  H  219  1  0.88758600  0.36210200  0.73705800  1
  H  220  1  0.89685300  0.38004300  0.74638100  1
  H  227  1  0.06809200  0.60770700  0.77960600  1
  H  228  1  0.05524800  0.55235300  0.78169500  1
  H  235  1  0.13819700  0.64403400  0.77973300  1
  H  236  1  0.11396500  0.59854100  0.80381200  1
  H  239  1  0.12392400  0.57651500  0.77511500  1
  H  240  1  0.11893400  0.55497200  0.77785700  1
  H  241  1  0.09654100  0.62187700  0.73702700  1
  H  242  1  0.08726900  0.60392500  0.74634800  1
  H  249  1  0.91593500  0.60770700  0.27401100  1
  H  250  1  0.92878200  0.55235600  0.27190000  1
  H  257  1  0.84581500  0.64401900  0.27390100  1
  H  258  1  0.87005600  0.59854000  0.24980700  1
  H  261  1  0.86010800  0.57650700  0.27851000  1
  H  262  1  0.86509800  0.55496800  0.27573700  1
  H  263  1  0.88752700  0.62189200  0.31657900  1
  H  264  1  0.89682400  0.60395400  0.30726600  1
  H  271  1  0.06808300  0.23920400  0.64250200  1
  H  272  1  0.05524800  0.23710400  0.58714600  1
  H  279  1  0.13820100  0.23910100  0.67882500  1
  H  280  1  0.11396000  0.21500900  0.63334400  1
  H  283  1  0.12391700  0.24371400  0.61131700  1
  H  284  1  0.11893100  0.24096400  0.58977300  1
  H  285  1  0.09642800  0.28178000  0.65672300  1
  H  286  1  0.08715800  0.27245400  0.63878400  1
  H  293  1  0.91592500  0.74482200  0.64250700  1
  H  294  1  0.92877000  0.74691100  0.58715400  1
  H  301  1  0.84581100  0.74492900  0.67882800  1
  H  302  1  0.87005200  0.76901800  0.63334400  1
  H  305  1  0.86009600  0.74031500  0.61131500  1
  H  306  1  0.86508600  0.74306100  0.58977200  1
  H  307  1  0.88758300  0.70224900  0.65672700  1
  H  308  1  0.89685200  0.71157200  0.63878500  1
  H  315  1  0.06809500  0.74480700  0.41111800  1
  H  316  1  0.05525100  0.74689600  0.46647200  1
  H  323  1  0.13820200  0.74493600  0.37479200  1
  H  324  1  0.11396700  0.76901600  0.42028300  1
  H  327  1  0.12392700  0.74031900  0.44231000  1
  H  328  1  0.11893700  0.74306000  0.46385400  1
  H  329  1  0.09654600  0.70223000  0.39694800  1
  H  330  1  0.08727300  0.71155100  0.41490000  1
  H  337  1  0.91594100  0.23920300  0.41111900  1
  H  338  1  0.92878900  0.23709500  0.46647100  1
  H  345  1  0.84582600  0.23908600  0.37480300  1
  H  346  1  0.87006500  0.21499600  0.42028500  1
  H  349  1  0.86011300  0.24369800  0.44231600  1
  H  350  1  0.86510400  0.24092600  0.46385800  1
  H  351  1  0.88752900  0.28177100  0.39693700  1
  H  352  1  0.89682500  0.27245800  0.41487400  1
  H  359  1  0.23919400  0.37632300  0.95074600  1
  H  360  1  0.23709800  0.43167900  0.96358000  1
  H  367  1  0.23908500  0.33999800  0.88063100  1
  H  368  1  0.21499600  0.38548100  0.90487100  1
  H  371  1  0.24369900  0.40750700  0.89491100  1
  H  372  1  0.24095200  0.42905200  0.89989700  1
  H  373  1  0.28176800  0.36210300  0.92239500  1
  H  374  1  0.27244500  0.38004300  0.93166600  1
  H  381  1  0.74482200  0.37631800  0.10290000  1
  H  382  1  0.74691100  0.43167200  0.09005500  1
  H  389  1  0.74493100  0.33999800  0.17301300  1
  H  390  1  0.76902000  0.38548100  0.14877100  1
  H  393  1  0.74031800  0.40751100  0.15872800  1
  H  394  1  0.74306400  0.42905500  0.15373900  1
  H  395  1  0.70224900  0.36210100  0.13124300  1
  H  396  1  0.71157200  0.38004200  0.12197500  1
  H  403  1  0.74480700  0.60770700  0.95072900  1
  H  404  1  0.74689600  0.55235400  0.96357400  1
  H  411  1  0.74493500  0.64403300  0.88062200  1
  H  412  1  0.76901300  0.59854300  0.90485600  1
  H  415  1  0.74031600  0.57651500  0.89489700  1
  H  416  1  0.74305900  0.55497200  0.89988700  1
  H  417  1  0.70223000  0.62188000  0.92228100  1
  H  418  1  0.71155100  0.60392600  0.93155300  1
  H  425  1  0.23921300  0.60770600  0.10288700  1
  H  426  1  0.23710200  0.55235400  0.09003900  1
  H  433  1  0.23910300  0.64401900  0.17300500  1
  H  434  1  0.21500900  0.59854000  0.14876500  1
  H  437  1  0.24371100  0.57650700  0.15871300  1
  H  438  1  0.24093700  0.55496600  0.15372400  1
  H  439  1  0.28178200  0.62188900  0.13129500  1
  H  440  1  0.27246900  0.60395200  0.12199900  1
  H  447  1  0.37632300  0.06808700  0.77962900  1
  H  448  1  0.43167800  0.05525100  0.78172900  1
  H  455  1  0.34000200  0.13820500  0.77973300  1
  H  456  1  0.38548100  0.11396200  0.80382700  1
  H  459  1  0.40750800  0.12392000  0.77512200  1
  H  460  1  0.42905200  0.11893400  0.77787100  1
  H  461  1  0.36210200  0.09643300  0.73705400  1
  H  462  1  0.38004200  0.08716200  0.74637900  1
  H  469  1  0.37631900  0.91593200  0.27400000  1
  H  470  1  0.43167200  0.92877700  0.27191500  1
  H  477  1  0.33999500  0.84582300  0.27388600  1
  H  478  1  0.38548100  0.87006100  0.24980100  1
  H  481  1  0.40751000  0.86010300  0.27850300  1
  H  482  1  0.42905400  0.86509300  0.27575800  1
  H  483  1  0.36210200  0.88758600  0.31657400  1
  H  484  1  0.38004300  0.89685300  0.30725000  1
  H  491  1  0.60770700  0.06809200  0.27402600  1
  H  492  1  0.55235300  0.05524800  0.27193700  1
  H  499  1  0.64403400  0.13819700  0.27389900  1
  H  500  1  0.59854100  0.11396500  0.24982000  1
  H  503  1  0.57651500  0.12392400  0.27851700  1
  H  504  1  0.55497200  0.11893400  0.27577300  1
  H  505  1  0.62187700  0.09654100  0.31660500  1
  H  506  1  0.60392500  0.08726900  0.30728400  1
  H  513  1  0.60770700  0.91593500  0.77962100  1
  H  514  1  0.55235600  0.92878200  0.78173000  1
  H  521  1  0.64401900  0.84581500  0.77973100  1
  H  522  1  0.59854000  0.87005600  0.80382400  1
  H  525  1  0.57650700  0.86010800  0.77512100  1
  H  526  1  0.55496800  0.86509800  0.77789500  1
  H  527  1  0.62189200  0.88752700  0.73705300  1
  H  528  1  0.60395400  0.89682400  0.74636400  1
  H  535  1  0.74885000  0.91597500  0.64429200  1
  H  536  1  0.74589700  0.92909000  0.58904900  1
  H  543  1  0.74511700  0.84621500  0.68104300  1
  H  544  1  0.76759700  0.86831800  0.63363200  1
  H  547  1  0.73490800  0.86124700  0.61375800  1
  H  548  1  0.73432600  0.86655200  0.59208900  1
  H  549  1  0.70484400  0.89238200  0.66277600  1
  H  550  1  0.71321500  0.90057800  0.64379500  1
  H  557  1  0.23516400  0.06806900  0.64429800  1
  H  558  1  0.23814400  0.05494500  0.58905800  1
  H  565  1  0.23890000  0.13782500  0.68104700  1
  H  566  1  0.21642700  0.11572200  0.63363200  1
  H  569  1  0.24912000  0.12279200  0.61376200  1
  H  570  1  0.24971400  0.11748600  0.59209600  1
  H  571  1  0.27917800  0.09166100  0.66278600  1
  H  572  1  0.27081000  0.08346500  0.64380200  1
  H  579  1  0.23517400  0.91597300  0.40934900  1
  H  580  1  0.23815400  0.92906700  0.46459600  1
  H  587  1  0.23890600  0.84621100  0.37258300  1
  H  588  1  0.21642000  0.86831800  0.41999200  1
  H  591  1  0.24907000  0.86121900  0.43986500  1
  H  592  1  0.24965700  0.86650900  0.46153500  1
  H  593  1  0.27921200  0.89232500  0.39089200  1
  H  594  1  0.27083200  0.90052700  0.40986900  1
  H  601  1  0.74886100  0.06804200  0.40934600  1
  H  602  1  0.74591200  0.05493700  0.46459200  1
  H  609  1  0.74513000  0.13779900  0.37258600  1
  H  610  1  0.76761500  0.11569900  0.41999800  1
  H  613  1  0.73499100  0.12279800  0.43988400  1
  H  614  1  0.73441900  0.11749800  0.46155100  1
  H  615  1  0.70484200  0.09166200  0.39088100  1
  H  616  1  0.71321500  0.08346400  0.40986200  1
  H  623  1  0.60948700  0.74885500  0.95078200  1
  H  624  1  0.55424400  0.74590000  0.96389600  1
  H  631  1  0.64623800  0.74512500  0.88102100  1
  H  632  1  0.59882500  0.76760400  0.90312400  1
  H  635  1  0.57895200  0.73491500  0.89605400  1
  H  636  1  0.55728500  0.73433100  0.90135800  1
  H  637  1  0.62797200  0.70485100  0.92718600  1
  H  638  1  0.60899100  0.71322200  0.93538400  1
  H  645  1  0.60949200  0.23516700  0.10287100  1
  H  646  1  0.55425200  0.23814300  0.08974800  1
  H  653  1  0.64624200  0.23890200  0.17262800  1
  H  654  1  0.59882800  0.21642800  0.15052400  1
  H  657  1  0.57895600  0.24911800  0.15759600  1
  H  658  1  0.55728900  0.24971200  0.15228900  1
  H  659  1  0.62797900  0.27917900  0.12646400  1
  H  660  1  0.60899500  0.27081300  0.11826800  1
  H  667  1  0.37454200  0.23517100  0.95077500  1
  H  668  1  0.42978900  0.23815400  0.96387000  1
  H  675  1  0.33777800  0.23890400  0.88101400  1
  H  676  1  0.38518700  0.21642000  0.90312000  1
  H  679  1  0.40505900  0.24907000  0.89602100  1
  H  680  1  0.42672800  0.24966000  0.90131300  1
  H  681  1  0.35608600  0.27921100  0.92712700  1
  H  682  1  0.37506200  0.27083100  0.93533100  1
  H  689  1  0.37454000  0.74885500  0.10284800  1
  H  690  1  0.42978700  0.74590900  0.08974300  1
  H  697  1  0.33778100  0.74512200  0.17260500  1
  H  698  1  0.38519100  0.76760800  0.15050500  1
  H  701  1  0.40507800  0.73498700  0.15760400  1
  H  702  1  0.42674600  0.73441500  0.15230400  1
  H  703  1  0.35607600  0.70483500  0.12646700  1
  H  704  1  0.37505700  0.71320800  0.11827000  1
  H  711  1  0.91597100  0.60948800  0.78365000  1
  H  712  1  0.92908800  0.55424500  0.78070000  1
  H  719  1  0.84621000  0.64623800  0.77991900  1
  H  720  1  0.86831600  0.59882600  0.80240000  1
  H  723  1  0.86124400  0.57895100  0.76971200  1
  H  724  1  0.86654900  0.55728200  0.76913000  1
  H  725  1  0.89237600  0.62797100  0.73964600  1
  H  726  1  0.90057400  0.60899000  0.74801600  1
  H  733  1  0.06806100  0.60949100  0.26996200  1
  H  734  1  0.05494000  0.55425100  0.27294300  1
  H  741  1  0.13781700  0.64624200  0.27369600  1
  H  742  1  0.11571500  0.59882600  0.25122400  1
  H  745  1  0.12278600  0.57895800  0.28391600  1
  H  746  1  0.11748000  0.55729000  0.28451000  1
  H  747  1  0.09165400  0.62797900  0.31397400  1
  H  748  1  0.08345800  0.60899700  0.30560800  1
  H  755  1  0.91597700  0.37454400  0.26997400  1
  H  756  1  0.92907000  0.42979200  0.27295600  1
  H  763  1  0.84621700  0.33777700  0.27370900  1
  H  764  1  0.86832100  0.38518700  0.25122300  1
  H  767  1  0.86122100  0.40505800  0.28387200  1
  H  768  1  0.86651100  0.42672800  0.28446100  1
  H  769  1  0.89232900  0.35608800  0.31401300  1
  H  770  1  0.90053200  0.37506400  0.30563300  1
  H  777  1  0.06804900  0.37453800  0.78365800  1
  H  778  1  0.05494300  0.42978500  0.78071200  1
  H  785  1  0.13780700  0.33778200  0.77992500  1
  H  786  1  0.11570600  0.38519100  0.80241200  1
  H  789  1  0.12280500  0.40507800  0.76978800  1
  H  790  1  0.11750400  0.42674600  0.76921500  1
  H  791  1  0.09166900  0.35607500  0.73963900  1
  H  792  1  0.08347100  0.37505500  0.74801100  1
  H  799  1  0.91597500  0.74885000  0.40933800  1
  H  800  1  0.92909000  0.74589700  0.46458300  1
  H  807  1  0.84621500  0.74511700  0.37258800  1
  H  808  1  0.86831800  0.76759700  0.41999900  1
  H  811  1  0.86124700  0.73490800  0.43987400  1
  H  812  1  0.86655200  0.73432600  0.46154200  1
  H  813  1  0.89238200  0.70484400  0.39085400  1
  H  814  1  0.90057800  0.71321500  0.40983500  1
  H  821  1  0.06806900  0.23516400  0.40933300  1
  H  822  1  0.05494500  0.23814400  0.46457300  1
  H  829  1  0.13782500  0.23890000  0.37258300  1
  H  830  1  0.11572200  0.21642700  0.41999900  1
  H  833  1  0.12279200  0.24912000  0.43986900  1
  H  834  1  0.11748600  0.24971400  0.46153600  1
  H  835  1  0.09166100  0.27917800  0.39084600  1
  H  836  1  0.08346500  0.27081000  0.40982800  1
  H  843  1  0.91597300  0.23517400  0.64428300  1
  H  844  1  0.92906700  0.23815400  0.58903600  1
  H  851  1  0.84621100  0.23890600  0.68104900  1
  H  852  1  0.86831800  0.21642000  0.63364000  1
  H  855  1  0.86121900  0.24907000  0.61376600  1
  H  856  1  0.86650900  0.24965700  0.59209600  1
  H  857  1  0.89232500  0.27921200  0.66273800  1
  H  858  1  0.90052700  0.27083200  0.64376300  1
  H  865  1  0.06804200  0.74886100  0.64428600  1
  H  866  1  0.05493700  0.74591200  0.58903900  1
  H  873  1  0.13779900  0.74513000  0.68104400  1
  H  874  1  0.11569900  0.76761500  0.63363400  1
  H  877  1  0.12279800  0.73499100  0.61374800  1
  H  878  1  0.11749800  0.73441900  0.59208100  1
  H  879  1  0.09166200  0.70484200  0.66275100  1
  H  880  1  0.08346400  0.71321500  0.64377000  1
  H  887  1  0.74885500  0.60948700  0.10285000  1
  H  888  1  0.74590000  0.55424400  0.08973500  1
  H  895  1  0.74512500  0.64623800  0.17261100  1
  H  896  1  0.76760400  0.59882500  0.15050800  1
  H  899  1  0.73491500  0.57895200  0.15757800  1
  H  900  1  0.73433100  0.55728500  0.15227400  1
  H  901  1  0.70485100  0.62797200  0.12644500  1
  H  902  1  0.71322200  0.60899100  0.11824700  1
  H  909  1  0.23516700  0.60949200  0.95076000  1
  H  910  1  0.23814300  0.55425200  0.96388400  1
  H  917  1  0.23890200  0.64624200  0.88100400  1
  H  918  1  0.21642800  0.59882800  0.90310700  1
  H  921  1  0.24911800  0.57895600  0.89603600  1
  H  922  1  0.24971200  0.55728900  0.90134300  1
  H  923  1  0.27917900  0.62797900  0.92716700  1
  H  924  1  0.27081300  0.60899500  0.93536400  1
  H  931  1  0.23517100  0.37454200  0.10285600  1
  H  932  1  0.23815400  0.42978900  0.08976100  1
  H  939  1  0.23890400  0.33777800  0.17261800  1
  H  940  1  0.21642000  0.38518700  0.15051100  1
  H  943  1  0.24907000  0.40505900  0.15761100  1
  H  944  1  0.24966000  0.42672800  0.15231900  1
  H  945  1  0.27921100  0.35608600  0.12650400  1
  H  946  1  0.27083100  0.37506200  0.11830100  1
  H  953  1  0.74885500  0.37454000  0.95078400  1
  H  954  1  0.74590900  0.42978700  0.96388800  1
  H  961  1  0.74512200  0.33778100  0.88102600  1
  H  962  1  0.76760800  0.38519100  0.90312600  1
  H  965  1  0.73498700  0.40507800  0.89602700  1
  H  966  1  0.73441500  0.42674600  0.90132600  1
  H  967  1  0.70483500  0.35607600  0.92716400  1
  H  968  1  0.71320800  0.37505700  0.93536100  1
  H  975  1  0.60948800  0.91597100  0.26998100  1
  H  976  1  0.55424500  0.92908800  0.27293200  1
  H  983  1  0.64623800  0.84621000  0.27371300  1
  H  984  1  0.59882600  0.86831600  0.25123100  1
  H  987  1  0.57895100  0.86124400  0.28392000  1
  H  988  1  0.55728200  0.86654900  0.28450200  1
  H  989  1  0.62797100  0.89237600  0.31398600  1
  H  990  1  0.60899000  0.90057400  0.30561400  1
  H  997  1  0.60949100  0.06806100  0.78367000  1
  H  998  1  0.55425100  0.05494000  0.78068900  1
  H  1005  1  0.64624200  0.13781700  0.77993600  1
  H  1006  1  0.59882600  0.11571500  0.80240700  1
  H  1009  1  0.57895800  0.12278600  0.76971600  1
  H  1010  1  0.55729000  0.11748000  0.76912000  1
  H  1011  1  0.62797900  0.09165400  0.73965700  1
  H  1012  1  0.60899700  0.08345800  0.74802400  1
  H  1019  1  0.37454400  0.91597700  0.78365700  1
  H  1020  1  0.42979200  0.92907000  0.78067600  1
  H  1027  1  0.33777700  0.84621700  0.77992300  1
  H  1028  1  0.38518700  0.86832100  0.80240900  1
  H  1031  1  0.40505800  0.86122100  0.76975800  1
  H  1032  1  0.42672800  0.86651100  0.76916900  1
  H  1033  1  0.35608800  0.89232900  0.73961700  1
  H  1034  1  0.37506400  0.90053200  0.74799700  1
  H  1041  1  0.37453800  0.06804900  0.26997400  1
  H  1042  1  0.42978500  0.05494300  0.27292000  1
  H  1049  1  0.33778200  0.13780700  0.27370600  1
  H  1050  1  0.38519100  0.11570600  0.25122000  1
  H  1053  1  0.40507800  0.12280500  0.28384400  1
  H  1054  1  0.42674600  0.11750400  0.28441500  1
  H  1055  1  0.35607500  0.09166900  0.31399300  1
  H  1056  1  0.37505500  0.08347100  0.30562100  1
  H  1063  1  0.13711600  0.20302200  0.36889400  1
  H  1070  1  0.20779600  0.14410600  0.42633400  1
  H  1071  1  0.20851100  0.14604300  0.36925800  1
  H  1072  1  0.15183300  0.21494100  0.42272600  1
  H  1077  1  0.16145700  0.15054300  0.43120200  1
  H  1080  1  0.14917400  0.15493800  0.35431100  1
  H  1087  1  0.84691800  0.78099500  0.36889400  1
  H  1094  1  0.77623500  0.83990700  0.42633400  1
  H  1095  1  0.77552000  0.83796700  0.36925600  1
  H  1096  1  0.83220700  0.76907800  0.42272700  1
  H  1101  1  0.82257400  0.83347500  0.43120200  1
  H  1104  1  0.83485400  0.82907700  0.35430700  1
  H  1111  1  0.84692000  0.20302400  0.68474500  1
  H  1118  1  0.77623400  0.14411400  0.62730400  1
  H  1119  1  0.77552400  0.14604600  0.68438300  1
  H  1120  1  0.83220600  0.21493900  0.63091100  1
  H  1125  1  0.82256900  0.15054300  0.62242800  1
  H  1128  1  0.83485700  0.15494200  0.69933200  1
  H  1135  1  0.13709600  0.78101100  0.68474100  1
  H  1142  1  0.20778500  0.83991800  0.62729900  1
  H  1143  1  0.20849300  0.83798600  0.68437700  1
  H  1144  1  0.15181000  0.76909200  0.63090900  1
  H  1149  1  0.16144800  0.83348800  0.62242500  1
  H  1152  1  0.14915900  0.82909300  0.69932600  1
  H  1159  1  0.33408300  0.13710300  0.23782500  1
  H  1166  1  0.39152600  0.20778100  0.17890600  1
  H  1167  1  0.33444800  0.20849500  0.18084100  1
  H  1168  1  0.38791800  0.15181400  0.24973900  1
  H  1173  1  0.39639700  0.16144300  0.18534100  1
  H  1176  1  0.31949600  0.14916200  0.18974200  1
  H  1183  1  0.33408100  0.84692100  0.81580400  1
  H  1190  1  0.39152600  0.77624000  0.87471500  1
  H  1191  1  0.33444800  0.77552100  0.87277800  1
  H  1192  1  0.38791500  0.83221000  0.80388800  1
  H  1197  1  0.39639000  0.82257900  0.86828600  1
  H  1200  1  0.31949600  0.83485500  0.86388900  1
  H  1207  1  0.64993100  0.84691700  0.23783500  1
  H  1214  1  0.59249600  0.77622800  0.17892200  1
  H  1215  1  0.64957400  0.77552200  0.18085700  1
  H  1216  1  0.59609800  0.83220300  0.24974800  1
  H  1221  1  0.58761700  0.82256300  0.18535400  1
  H  1224  1  0.66452100  0.83485500  0.18975300  1
  H  1231  1  0.64993000  0.13710900  0.81581400  1
  H  1238  1  0.59249100  0.20780000  0.87471800  1
  H  1239  1  0.64956900  0.20851000  0.87278500  1
  H  1240  1  0.59610000  0.15182900  0.80388900  1
  H  1245  1  0.58761900  0.16146200  0.86828600  1
  H  1248  1  0.66451100  0.14917100  0.86389800  1
  H  1255  1  0.20302400  0.33408100  0.17191200  1
  H  1262  1  0.14410700  0.39152800  0.24258900  1
  H  1263  1  0.14604500  0.33444900  0.24330700  1
  H  1264  1  0.21493700  0.38791700  0.18662100  1
  H  1269  1  0.15053900  0.39639200  0.19625000  1
  H  1272  1  0.15494000  0.31949500  0.18397400  1
  H  1279  1  0.78100300  0.33408300  0.88173100  1
  H  1286  1  0.83991600  0.39152500  0.81104900  1
  H  1287  1  0.83798000  0.33444800  0.81033300  1
  H  1288  1  0.76908800  0.38791700  0.86701600  1
  H  1293  1  0.83348300  0.39639400  0.85738600  1
  H  1296  1  0.82908600  0.31949600  0.86966800  1
  H  1303  1  0.20302400  0.64993300  0.88171400  1
  H  1310  1  0.14411300  0.59249600  0.81102600  1
  H  1311  1  0.14604500  0.64957400  0.81032100  1
  H  1312  1  0.21494300  0.59610200  0.86699500  1
  H  1317  1  0.15054800  0.58761900  0.85736200  1
  H  1320  1  0.15493800  0.66451700  0.86965700  1
  H  1327  1  0.78100300  0.64993000  0.17190700  1
  H  1334  1  0.83990800  0.59249100  0.24259800  1
  H  1335  1  0.83797200  0.64956900  0.24330800  1
  H  1336  1  0.76908400  0.59609600  0.18662100  1
  H  1341  1  0.83347900  0.58761700  0.19626100  1
  H  1344  1  0.82908500  0.66451500  0.18397200  1
  H  1351  1  0.20302200  0.13711600  0.68473700  1
  H  1358  1  0.14410600  0.20779600  0.62729600  1
  H  1359  1  0.14604300  0.20851100  0.68437400  1
  H  1360  1  0.21494100  0.15183300  0.63090600  1
  H  1365  1  0.15054300  0.16145700  0.62242800  1
  H  1368  1  0.15493800  0.14917400  0.69932100  1
  H  1375  1  0.78099500  0.84691800  0.68473700  1
  H  1382  1  0.83990700  0.77623500  0.62729800  1
  H  1383  1  0.83796700  0.77552000  0.68437400  1
  H  1384  1  0.76907800  0.83220700  0.63090300  1
  H  1389  1  0.83347500  0.82257400  0.62242900  1
  H  1392  1  0.82907700  0.83485400  0.69932300  1
  H  1399  1  0.20302400  0.84692000  0.36888600  1
  H  1406  1  0.14411400  0.77623400  0.42632600  1
  H  1407  1  0.14604600  0.77552400  0.36924800  1
  H  1408  1  0.21493900  0.83220600  0.42271900  1
  H  1413  1  0.15054300  0.82256900  0.43120200  1
  H  1416  1  0.15494200  0.83485700  0.35429900  1
  H  1423  1  0.78101100  0.13709600  0.36889100  1
  H  1430  1  0.83991800  0.20778500  0.42633200  1
  H  1431  1  0.83798600  0.20849300  0.36925300  1
  H  1432  1  0.76909200  0.15181000  0.42272300  1
  H  1437  1  0.83348800  0.16144800  0.43120700  1
  H  1440  1  0.82909300  0.14915900  0.35430600  1
  H  1447  1  0.13710300  0.33408300  0.81580700  1
  H  1454  1  0.20778100  0.39152600  0.87472400  1
  H  1455  1  0.20849500  0.33444800  0.87279000  1
  H  1456  1  0.15181400  0.38791800  0.80389300  1
  H  1461  1  0.16144300  0.39639700  0.86829000  1
  H  1464  1  0.14916200  0.31949600  0.86388900  1
  H  1471  1  0.84692100  0.33408100  0.23782700  1
  H  1478  1  0.77624000  0.39152600  0.17891600  1
  H  1479  1  0.77552100  0.33444800  0.18085400  1
  H  1480  1  0.83221000  0.38791500  0.24974400  1
  H  1485  1  0.82257900  0.39639000  0.18534600  1
  H  1488  1  0.83485500  0.31949600  0.18974300  1
  H  1495  1  0.84691700  0.64993100  0.81579700  1
  H  1502  1  0.77622800  0.59249600  0.87470800  1
  H  1503  1  0.77552200  0.64957400  0.87277500  1
  H  1504  1  0.83220300  0.59609800  0.80388200  1
  H  1509  1  0.82256300  0.58761700  0.86827800  1
  H  1512  1  0.83485500  0.66452100  0.86387900  1
  H  1519  1  0.13710900  0.64993000  0.23781800  1
  H  1526  1  0.20780000  0.59249100  0.17891300  1
  H  1527  1  0.20851000  0.64956900  0.18084600  1
  H  1528  1  0.15182900  0.59610000  0.24974200  1
  H  1533  1  0.16146200  0.58761900  0.18534500  1
  H  1536  1  0.14917100  0.66451100  0.18973200  1
  H  1543  1  0.33408100  0.20302400  0.88172000  1
  H  1550  1  0.39152800  0.14410700  0.81104300  1
  H  1551  1  0.33444900  0.14604500  0.81032400  1
  H  1552  1  0.38791700  0.21493700  0.86701000  1
  H  1557  1  0.39639200  0.15053900  0.85738200  1
  H  1560  1  0.31949500  0.15494000  0.86965700  1
  H  1567  1  0.33408300  0.78100300  0.17190100  1
  H  1574  1  0.39152500  0.83991600  0.24258300  1
  H  1575  1  0.33444800  0.83798000  0.24329700  1
  H  1576  1  0.38791700  0.76908800  0.18661400  1
  H  1581  1  0.39639400  0.83348300  0.19624400  1
  H  1584  1  0.31949600  0.82908600  0.18396300  1
  H  1591  1  0.64993300  0.20302400  0.17191600  1
  H  1598  1  0.59249600  0.14411300  0.24260600  1
  H  1599  1  0.64957400  0.14604500  0.24331100  1
  H  1600  1  0.59610200  0.21494300  0.18663700  1
  H  1605  1  0.58761900  0.15054800  0.19626900  1
  H  1608  1  0.66451700  0.15493800  0.18397400  1
  H  1615  1  0.64993000  0.78100300  0.88172400  1
  H  1622  1  0.59249100  0.83990800  0.81103400  1
  H  1623  1  0.64956900  0.83797200  0.81032200  1
  H  1624  1  0.59609600  0.76908400  0.86701100  1
  H  1629  1  0.58761700  0.83347900  0.85737100  1
  H  1632  1  0.66451500  0.82908500  0.86965800  1
  H  1639  1  0.63704200  0.70205900  0.88047400  1
  H  1646  1  0.71918400  0.65325900  0.93022100  1
  H  1647  1  0.71012500  0.64691600  0.87423300  1
  H  1648  1  0.66551600  0.72680500  0.92328600  1
  H  1653  1  0.67390300  0.66397100  0.94097100  1
  H  1656  1  0.64751000  0.65149100  0.87534600  1
  H  1663  1  0.34695900  0.28195700  0.88044500  1
  H  1670  1  0.26481400  0.33075100  0.93021900  1
  H  1671  1  0.27391200  0.33714100  0.87424300  1
  H  1672  1  0.31852000  0.25723800  0.92329700  1
  H  1677  1  0.31007000  0.32004600  0.94100700  1
  H  1680  1  0.33651100  0.33250800  0.87528400  1
  H  1687  1  0.34697900  0.70206200  0.17315700  1
  H  1694  1  0.26483600  0.65325700  0.12340500  1
  H  1695  1  0.27391800  0.64689300  0.17938700  1
  H  1696  1  0.31851200  0.72679600  0.13033300  1
  H  1701  1  0.31010400  0.66397000  0.11263400  1
  H  1704  1  0.33652900  0.65149900  0.17829800  1
  H  1711  1  0.63702400  0.28199100  0.17315200  1
  H  1718  1  0.71921100  0.33074500  0.12342600  1
  H  1719  1  0.71009400  0.33715200  0.17939800  1
  H  1720  1  0.66553800  0.25720700  0.13038600  1
  H  1725  1  0.67394300  0.32002200  0.11263900  1
  H  1728  1  0.64747400  0.33256000  0.17824200  1
  H  1735  1  0.84568000  0.63702300  0.73683700  1
  H  1742  1  0.89540100  0.71921400  0.68808200  1
  H  1743  1  0.83943000  0.71009300  0.68167600  1
  H  1744  1  0.88845400  0.66552900  0.76161300  1
  H  1749  1  0.90619400  0.67395000  0.69879900  1
  H  1752  1  0.84057500  0.64747600  0.68627200  1
  H  1759  1  0.84563700  0.34694900  0.31675100  1
  H  1766  1  0.89542400  0.26483000  0.36557200  1
  H  1767  1  0.83943800  0.27389600  0.37192500  1
  H  1768  1  0.88851000  0.31852800  0.29205000  1
  H  1773  1  0.90618900  0.31009500  0.35487100  1
  H  1776  1  0.84046200  0.33649500  0.36730300  1
  H  1783  1  0.13834900  0.34699000  0.73685500  1
  H  1790  1  0.08861000  0.26481900  0.68807800  1
  H  1791  1  0.14458300  0.27393400  0.68167700  1
  H  1792  1  0.09554800  0.31850300  0.76160800  1
  H  1797  1  0.07781700  0.31007800  0.69879300  1
  H  1800  1  0.14347600  0.33654500  0.68629400  1
  H  1807  1  0.13835800  0.63704300  0.31676800  1
  H  1814  1  0.08860500  0.71918100  0.36556600  1
  H  1815  1  0.14459300  0.71012800  0.37191100  1
  H  1816  1  0.09555400  0.66552400  0.29201500  1
  H  1821  1  0.07786100  0.67389700  0.35485200  1
  H  1824  1  0.14347100  0.64750800  0.36734100  1
  H  1831  1  0.70204400  0.84567600  0.67183800  1
  H  1838  1  0.65326100  0.89541300  0.75400000  1
  H  1839  1  0.64688800  0.83943300  0.74491200  1
  H  1840  1  0.72680200  0.88847200  0.70032700  1
  H  1845  1  0.66397800  0.90618500  0.70872800  1
  H  1848  1  0.65147800  0.84055800  0.68229600  1
  H  1855  1  0.28195800  0.84564100  0.38176600  1
  H  1862  1  0.33075000  0.89541200  0.29961800  1
  H  1863  1  0.33713700  0.83943400  0.30871400  1
  H  1864  1  0.25723800  0.88849200  0.35332600  1
  H  1869  1  0.32004900  0.90619900  0.34487400  1
  H  1872  1  0.33250900  0.84047800  0.37131400  1
  H  1879  1  0.70207600  0.13836000  0.38177700  1
  H  1886  1  0.65325600  0.08859700  0.29965200  1
  H  1887  1  0.64692200  0.14458700  0.30870400  1
  H  1888  1  0.72679800  0.09551900  0.35332300  1
  H  1893  1  0.66396100  0.07784700  0.34492900  1
  H  1896  1  0.65151300  0.14350900  0.37131600  1
  H  1903  1  0.28198900  0.13834900  0.67183100  1
  H  1910  1  0.33074500  0.08861900  0.75401400  1
  H  1911  1  0.33715600  0.14458900  0.74489700  1
  H  1912  1  0.25720500  0.09558300  0.70034300  1
  H  1917  1  0.32002000  0.07783100  0.70874900  1
  H  1920  1  0.33256000  0.14343700  0.68227700  1
  H  1927  1  0.70205900  0.63704200  0.17315800  1
  H  1934  1  0.65325900  0.71918400  0.12341000  1
  H  1935  1  0.64691600  0.71012500  0.17939800  1
  H  1936  1  0.72680500  0.66551600  0.13034500  1
  H  1941  1  0.66397100  0.67390300  0.11265900  1
  H  1944  1  0.65149100  0.64751000  0.17828400  1
  H  1951  1  0.28195700  0.34695900  0.17318700  1
  H  1958  1  0.33075100  0.26481400  0.12341200  1
  H  1959  1  0.33714100  0.27391200  0.17938800  1
  H  1960  1  0.25723800  0.31852000  0.13033500  1
  H  1965  1  0.32004600  0.31007000  0.11262500  1
  H  1968  1  0.33250800  0.33651100  0.17834700  1
  H  1975  1  0.70206200  0.34697900  0.88047400  1
  H  1982  1  0.65325700  0.26483600  0.93022500  1
  H  1983  1  0.64689300  0.27391800  0.87424400  1
  H  1984  1  0.72679600  0.31851200  0.92329800  1
  H  1989  1  0.66397000  0.31010400  0.94099700  1
  H  1992  1  0.65149900  0.33652900  0.87533400  1
  H  1999  1  0.28199100  0.63702400  0.88048000  1
  H  2006  1  0.33074500  0.71921100  0.93020500  1
  H  2007  1  0.33715200  0.71009400  0.87423400  1
  H  2008  1  0.25720700  0.66553800  0.92324500  1
  H  2013  1  0.32002200  0.67394300  0.94099200  1
  H  2016  1  0.33256000  0.64747400  0.87539000  1
  H  2023  1  0.63702300  0.84568000  0.31679500  1
  H  2030  1  0.71921400  0.89540100  0.36554900  1
  H  2031  1  0.71009300  0.83943000  0.37195500  1
  H  2032  1  0.66552900  0.88845400  0.29201700  1
  H  2037  1  0.67395000  0.90619400  0.35483100  1
  H  2040  1  0.64747600  0.84057500  0.36736000  1
  H  2047  1  0.34694900  0.84563700  0.73688100  1
  H  2054  1  0.26483000  0.89542400  0.68806000  1
  H  2055  1  0.27389600  0.83943800  0.68170600  1
  H  2056  1  0.31852800  0.88851000  0.76158200  1
  H  2061  1  0.31009500  0.90618900  0.69876000  1
  H  2064  1  0.33649500  0.84046200  0.68632800  1
  H  2071  1  0.34699000  0.13834900  0.31677600  1
  H  2078  1  0.26481900  0.08861000  0.36555400  1
  H  2079  1  0.27393400  0.14458300  0.37195400  1
  H  2080  1  0.31850300  0.09554800  0.29202300  1
  H  2085  1  0.31007800  0.07781700  0.35483800  1
  H  2088  1  0.33654500  0.14347600  0.36733700  1
  H  2095  1  0.63704300  0.13835800  0.73686300  1
  H  2102  1  0.71918100  0.08860500  0.68806400  1
  H  2103  1  0.71012800  0.14459300  0.68171900  1
  H  2104  1  0.66552400  0.09555400  0.76161700  1
  H  2109  1  0.67389700  0.07786100  0.69877900  1
  H  2112  1  0.64750800  0.14347100  0.68629100  1
  H  2119  1  0.84567600  0.70204400  0.38179300  1
  H  2126  1  0.89541300  0.65326100  0.29963000  1
  H  2127  1  0.83943300  0.64688800  0.30872000  1
  H  2128  1  0.88847200  0.72680200  0.35330400  1
  H  2133  1  0.90618500  0.66397800  0.34490400  1
  H  2136  1  0.84055800  0.65147800  0.37133600  1
  H  2143  1  0.84564100  0.28195800  0.67186600  1
  H  2150  1  0.89541200  0.33075000  0.75401400  1
  H  2151  1  0.83943400  0.33713700  0.74491700  1
  H  2152  1  0.88849200  0.25723800  0.70030600  1
  H  2157  1  0.90619900  0.32004900  0.70875700  1
  H  2160  1  0.84047800  0.33250900  0.68231800  1
  H  2167  1  0.13836000  0.70207600  0.67185400  1
  H  2174  1  0.08859700  0.65325600  0.75398000  1
  H  2175  1  0.14458700  0.64692200  0.74492800  1
  H  2176  1  0.09551900  0.72679800  0.70030900  1
  H  2181  1  0.07784700  0.66396100  0.70870300  1
  H  2184  1  0.14350900  0.65151300  0.68231600  1
  H  2191  1  0.13834900  0.28198900  0.38180100  1
  H  2198  1  0.08861900  0.33074500  0.29961700  1
  H  2199  1  0.14458900  0.33715600  0.30873400  1
  H  2200  1  0.09558300  0.25720500  0.35328800  1
  H  2205  1  0.07783100  0.32002000  0.34488300  1
  H  2208  1  0.14343700  0.33256000  0.37135400  1
  H  2215  1  0.22002900  0.04097700  0.41155200  1
  H  2222  1  0.21336000  0.94853700  0.45251800  1
  H  2223  1  0.25406400  0.94676800  0.41240100  1
  H  2224  1  0.25553900  0.03102700  0.45531500  1
  H  2229  1  0.19065500  0.98952600  0.43778800  1
  H  2232  1  0.19084000  0.00162900  0.39759400  1
  H  2239  1  0.76400800  0.94303100  0.41155600  1
  H  2246  1  0.77070300  0.03546500  0.45249200  1
  H  2247  1  0.72996300  0.03725000  0.41241300  1
  H  2248  1  0.72846900  0.95298800  0.45529300  1
  H  2253  1  0.79340000  0.99450500  0.43774600  1
  H  2256  1  0.79321900  0.98231600  0.39759000  1
  H  2263  1  0.76399400  0.04098900  0.64208200  1
  H  2270  1  0.77069600  0.94855700  0.60115300  1
  H  2271  1  0.72994000  0.94677100  0.64121500  1
  H  2272  1  0.72845300  0.03103600  0.59834700  1
  H  2277  1  0.79338700  0.98951400  0.61590400  1
  H  2280  1  0.79320300  0.00171200  0.65605500  1
  H  2287  1  0.22002000  0.94305200  0.64208800  1
  H  2294  1  0.21333800  0.03548900  0.60115000  1
  H  2295  1  0.25407600  0.03726100  0.64122700  1
  H  2296  1  0.25554600  0.95299900  0.59833900  1
  H  2301  1  0.19064200  0.99451500  0.61588200  1
  H  2304  1  0.19082700  0.98236200  0.65605400  1
  H  2311  1  0.37674700  0.22002100  0.07577900  1
  H  2318  1  0.41771400  0.21335900  0.98333800  1
  H  2319  1  0.37759400  0.25406000  0.98157200  1
  H  2320  1  0.42050800  0.25553300  0.06583100  1
  H  2325  1  0.40298400  0.19065100  0.02432700  1
  H  2328  1  0.36279000  0.19083500  0.03642900  1
  H  2335  1  0.37675100  0.76400800  0.97783800  1
  H  2342  1  0.41768600  0.77070000  0.07027300  1
  H  2343  1  0.37760900  0.72995700  0.07205600  1
  H  2344  1  0.42048800  0.72846800  0.98779400  1
  H  2349  1  0.40293800  0.79339800  0.02931600  1
  H  2352  1  0.36278500  0.79321900  0.01712100  1
  H  2359  1  0.60727700  0.76399600  0.07579600  1
  H  2366  1  0.56634600  0.77069800  0.98336500  1
  H  2367  1  0.60641100  0.72994500  0.98157600  1
  H  2368  1  0.56354200  0.72845400  0.06584200  1
  H  2373  1  0.58109600  0.79338900  0.02432300  1
  H  2376  1  0.62125000  0.79320300  0.03651700  1
  H  2383  1  0.60728200  0.22002700  0.97785400  1
  H  2390  1  0.56634600  0.21333800  0.07029000  1
  H  2391  1  0.60642000  0.25408000  0.07206500  1
  H  2392  1  0.56353300  0.25555300  0.98780200  1
  H  2397  1  0.58107900  0.19064500  0.02931700  1
  H  2400  1  0.62125000  0.19083100  0.01716100  1
  H  2407  1  0.04098000  0.37674600  0.25482800  1
  H  2414  1  0.94854000  0.41771700  0.24816400  1
  H  2415  1  0.94677100  0.37759400  0.28886200  1
  H  2416  1  0.03103200  0.42050800  0.29033900  1
  H  2421  1  0.98953000  0.40298600  0.22545800  1
  H  2424  1  0.00162800  0.36279200  0.22564000  1
  H  2431  1  0.94303900  0.37675200  0.79881500  1
  H  2438  1  0.03547400  0.41768300  0.80550600  1
  H  2439  1  0.03725600  0.37760900  0.76476000  1
  H  2440  1  0.95299400  0.42048800  0.76327500  1
  H  2445  1  0.99451900  0.40293500  0.82820500  1
  H  2448  1  0.98231900  0.36278400  0.82802400  1
  H  2455  1  0.04098700  0.60727500  0.79879400  1
  H  2462  1  0.94855500  0.56635200  0.80549900  1
  H  2463  1  0.94676700  0.60640800  0.76473800  1
  H  2464  1  0.03103200  0.56354000  0.76325300  1
  H  2469  1  0.98950800  0.58110400  0.82819000  1
  H  2472  1  0.00171500  0.62125200  0.82800300  1
  H  2479  1  0.94304400  0.60728400  0.25482700  1
  H  2486  1  0.03548000  0.56634100  0.24814000  1
  H  2487  1  0.03725600  0.60642300  0.28887300  1
  H  2488  1  0.95299200  0.56353300  0.29035200  1
  H  2493  1  0.99450200  0.58107100  0.22544600  1
  H  2496  1  0.98235900  0.62124700  0.22563100  1
  H  2503  1  0.04097700  0.22002900  0.64208000  1
  H  2510  1  0.94853700  0.21336000  0.60111200  1
  H  2511  1  0.94676800  0.25406400  0.64123100  1
  H  2512  1  0.03102700  0.25553900  0.59831700  1
  H  2517  1  0.98952600  0.19065500  0.61584400  1
  H  2520  1  0.00162900  0.19084000  0.65603600  1
  H  2527  1  0.94303100  0.76400800  0.64207500  1
  H  2534  1  0.03546500  0.77070300  0.60113800  1
  H  2535  1  0.03725000  0.72996300  0.64121800  1
  H  2536  1  0.95298800  0.72846900  0.59833900  1
  H  2541  1  0.99450500  0.79340000  0.61588600  1
  H  2544  1  0.98231600  0.79321900  0.65604000  1
  H  2551  1  0.04098900  0.76399400  0.41155000  1
  H  2558  1  0.94855700  0.77069600  0.45247800  1
  H  2559  1  0.94677100  0.72994000  0.41241700  1
  H  2560  1  0.03103600  0.72845300  0.45528500  1
  H  2565  1  0.98951400  0.79338700  0.43772800  1
  H  2568  1  0.00171200  0.79320300  0.39757700  1
  H  2575  1  0.94305200  0.22002000  0.41154300  1
  H  2582  1  0.03548900  0.21333800  0.45248000  1
  H  2583  1  0.03726100  0.25407600  0.41240400  1
  H  2584  1  0.95299900  0.25554600  0.45529200  1
  H  2589  1  0.99451500  0.19064200  0.43774800  1
  H  2592  1  0.98236200  0.19082700  0.39757700  1
  H  2599  1  0.22002100  0.37674700  0.97785300  1
  H  2606  1  0.21335900  0.41771400  0.07029300  1
  H  2607  1  0.25406000  0.37759400  0.07206000  1
  H  2608  1  0.25553300  0.42050800  0.98780000  1
  H  2613  1  0.19065100  0.40298400  0.02930500  1
  H  2616  1  0.19083500  0.36279000  0.01720300  1
  H  2623  1  0.76400800  0.37675100  0.07579300  1
  H  2630  1  0.77070000  0.41768600  0.98335900  1
  H  2631  1  0.72995700  0.37760900  0.98157500  1
  H  2632  1  0.72846800  0.42048800  0.06583800  1
  H  2637  1  0.79339800  0.40293800  0.02431600  1
  H  2640  1  0.79321900  0.36278500  0.03651100  1
  H  2647  1  0.76399600  0.60727700  0.97783500  1
  H  2654  1  0.77069800  0.56634600  0.07026600  1
  H  2655  1  0.72994500  0.60641100  0.07205500  1
  H  2656  1  0.72845400  0.56354200  0.98779000  1
  H  2661  1  0.79338900  0.58109600  0.02930800  1
  H  2664  1  0.79320300  0.62125000  0.01711500  1
  H  2671  1  0.22002700  0.60728200  0.07577700  1
  H  2678  1  0.21333800  0.56634600  0.98334100  1
  H  2679  1  0.25408000  0.60642000  0.98156700  1
  H  2680  1  0.25555300  0.56353300  0.06582900  1
  H  2685  1  0.19064500  0.58107900  0.02431500  1
  H  2688  1  0.19083100  0.62125000  0.03647100  1
  H  2695  1  0.37674600  0.04098000  0.79880200  1
  H  2702  1  0.41771700  0.94854000  0.80546800  1
  H  2703  1  0.37759400  0.94677100  0.76476900  1
  H  2704  1  0.42050800  0.03103200  0.76329200  1
  H  2709  1  0.40298600  0.98953000  0.82817400  1
  H  2712  1  0.36279200  0.00162800  0.82799000  1
  H  2719  1  0.37675200  0.94303900  0.25481600  1
  H  2726  1  0.41768300  0.03547400  0.24812500  1
  H  2727  1  0.37760900  0.03725600  0.28887200  1
  H  2728  1  0.42048800  0.95299400  0.29035700  1
  H  2733  1  0.40293500  0.99451900  0.22542700  1
  H  2736  1  0.36278400  0.98231900  0.22560600  1
  H  2743  1  0.60727500  0.04098700  0.25483800  1
  H  2750  1  0.56635200  0.94855500  0.24813100  1
  H  2751  1  0.60640800  0.94676700  0.28889400  1
  H  2752  1  0.56354000  0.03103200  0.29037700  1
  H  2757  1  0.58110400  0.98950800  0.22544200  1
  H  2760  1  0.62125200  0.00171500  0.22562900  1
  H  2767  1  0.60728400  0.94304400  0.79880500  1
  H  2774  1  0.56634100  0.03548000  0.80549100  1
  H  2775  1  0.60642300  0.03725600  0.76475700  1
  H  2776  1  0.56353300  0.95299200  0.76328000  1
  H  2781  1  0.58107100  0.99450200  0.82818500  1
  H  2784  1  0.62124700  0.98235900  0.82800000  1
  H  2791  1  0.71740600  0.53984100  0.92008500  1
  H  2798  1  0.71594400  0.44589400  0.94783900  1
  H  2799  1  0.76440000  0.44694800  0.91768000  1
  H  2800  1  0.76896600  0.53097700  0.94300200  1
  H  2805  1  0.68969200  0.47154500  0.93830500  1
  H  2808  1  0.68452200  0.50818700  0.91264000  1
  H  2815  1  0.26660600  0.44417600  0.92010500  1
  H  2822  1  0.26809400  0.53811500  0.94786200  1
  H  2823  1  0.21966600  0.53709600  0.91766000  1
  H  2824  1  0.21503500  0.45306000  0.94299000  1
  H  2829  1  0.29433600  0.51244900  0.93835700  1
  H  2832  1  0.29950500  0.47582300  0.91268200  1
  H  2839  1  0.26660100  0.53986000  0.13352000  1
  H  2846  1  0.26810700  0.44590400  0.10580300  1
  H  2847  1  0.21965300  0.44694300  0.13595700  1
  H  2848  1  0.21503400  0.53096100  0.11062600  1
  H  2853  1  0.29434600  0.47157200  0.11531500  1
  H  2856  1  0.29950100  0.50822300  0.14097000  1
  H  2863  1  0.71741100  0.44418000  0.13353300  1
  H  2870  1  0.71594800  0.53811900  0.10576500  1
  H  2871  1  0.76438100  0.53708800  0.13596500  1
  H  2872  1  0.76898200  0.45305200  0.11064100  1
  H  2877  1  0.68969900  0.51246400  0.11528400  1
  H  2880  1  0.68452000  0.47583500  0.14095800  1
  H  2887  1  0.88529300  0.71741000  0.57464600  1
  H  2894  1  0.91306100  0.71594500  0.48070700  1
  H  2895  1  0.88286000  0.76437700  0.48173800  1
  H  2896  1  0.90818300  0.76898200  0.56577500  1
  H  2901  1  0.90354300  0.68969600  0.50636400  1
  H  2904  1  0.87786800  0.68451700  0.54299200  1
  H  2911  1  0.88530600  0.26659200  0.47896300  1
  H  2918  1  0.91302400  0.26810600  0.57291900  1
  H  2919  1  0.88287200  0.21965100  0.57188400  1
  H  2920  1  0.90820200  0.21502700  0.48786500  1
  H  2925  1  0.90351100  0.29434300  0.54725000  1
  H  2928  1  0.87785600  0.29949500  0.51059800  1
  H  2935  1  0.09872200  0.26661500  0.57464700  1
  H  2942  1  0.07096500  0.26809500  0.48070900  1
  H  2943  1  0.10116900  0.21966800  0.48173100  1
  H  2944  1  0.07583900  0.21504200  0.56576700  1
  H  2949  1  0.08046800  0.29433900  0.50637400  1
  H  2952  1  0.10614400  0.29951200  0.54299800  1
  H  2959  1  0.09874200  0.71740700  0.47898600  1
  H  2966  1  0.07098700  0.71594600  0.57293300  1
  H  2967  1  0.10114500  0.76440400  0.57187700  1
  H  2968  1  0.07582300  0.76896700  0.48784800  1
  H  2973  1  0.08052100  0.68969500  0.54728300  1
  H  2976  1  0.10618600  0.68452500  0.51064000  1
  H  2983  1  0.53986100  0.88530200  0.75223100  1
  H  2990  1  0.44590700  0.91302700  0.75072300  1
  H  2991  1  0.44694200  0.88287100  0.79917700  1
  H  2992  1  0.53096300  0.90819500  0.80380000  1
  H  2997  1  0.47157500  0.90351300  0.72448500  1
  H  3000  1  0.50822400  0.87785600  0.71933100  1
  H  3007  1  0.44417800  0.88529700  0.30141400  1
  H  3014  1  0.53811900  0.91305800  0.30288400  1
  H  3015  1  0.53708800  0.88286000  0.25445100  1
  H  3016  1  0.45305300  0.90819000  0.24984500  1
  H  3021  1  0.51246100  0.90354100  0.32913200  1
  H  3024  1  0.47583100  0.87786800  0.33430700  1
  H  3031  1  0.53984100  0.09873900  0.30142600  1
  H  3038  1  0.44589100  0.07099100  0.30288700  1
  H  3039  1  0.44695000  0.10114900  0.25442900  1
  H  3040  1  0.53097700  0.07582100  0.24986600  1
  H  3045  1  0.47154300  0.08052200  0.32913900  1
  H  3048  1  0.50818600  0.10618500  0.33430800  1
  H  3055  1  0.44417800  0.09872500  0.75221900  1
  H  3062  1  0.53811500  0.07096100  0.75073800  1
  H  3063  1  0.53709400  0.10116400  0.79916600  1
  H  3064  1  0.45305700  0.07584100  0.80379300  1
  H  3069  1  0.51245100  0.08046700  0.72449500  1
  H  3072  1  0.47582800  0.10614500  0.71932100  1
  H  3079  1  0.53984100  0.71740600  0.13354700  1
  H  3086  1  0.44589400  0.71594400  0.10579300  1
  H  3087  1  0.44694800  0.76440000  0.13595200  1
  H  3088  1  0.53097700  0.76896600  0.11063000  1
  H  3093  1  0.47154500  0.68969200  0.11532600  1
  H  3096  1  0.50818700  0.68452200  0.14099100  1
  H  3103  1  0.44417600  0.26660600  0.13352700  1
  H  3110  1  0.53811500  0.26809400  0.10576900  1
  H  3111  1  0.53709600  0.21966600  0.13597100  1
  H  3112  1  0.45306000  0.21503500  0.11064100  1
  H  3117  1  0.51244900  0.29433600  0.11527400  1
  H  3120  1  0.47582400  0.29950500  0.14095000  1
  H  3127  1  0.53986000  0.26660100  0.92011000  1
  H  3134  1  0.44590400  0.26810700  0.94782800  1
  H  3135  1  0.44694300  0.21965300  0.91767400  1
  H  3136  1  0.53096100  0.21503400  0.94300500  1
  H  3141  1  0.47157200  0.29434600  0.93831600  1
  H  3144  1  0.50822300  0.29950100  0.91266000  1
  H  3151  1  0.44418000  0.71741100  0.92009800  1
  H  3158  1  0.53811900  0.71594800  0.94786600  1
  H  3159  1  0.53708800  0.76438100  0.91766700  1
  H  3160  1  0.45305200  0.76898200  0.94299000  1
  H  3165  1  0.51246400  0.68969900  0.93834700  1
  H  3168  1  0.47583500  0.68452000  0.91267300  1
  H  3175  1  0.71741000  0.88529300  0.47898400  1
  H  3182  1  0.71594500  0.91306100  0.57292500  1
  H  3183  1  0.76437700  0.88286000  0.57189300  1
  H  3184  1  0.76898200  0.90818300  0.48785700  1
  H  3189  1  0.68969600  0.90354300  0.54726600  1
  H  3192  1  0.68451700  0.87786800  0.51063900  1
  H  3199  1  0.26659200  0.88530600  0.57466800  1
  H  3206  1  0.26810600  0.91302400  0.48071300  1
  H  3207  1  0.21965100  0.88287200  0.48174800  1
  H  3208  1  0.21502700  0.90820200  0.56576500  1
  H  3213  1  0.29434300  0.90351100  0.50638200  1
  H  3216  1  0.29949500  0.87785600  0.54303200  1
  H  3223  1  0.26661500  0.09872200  0.47898300  1
  H  3230  1  0.26809500  0.07096500  0.57292300  1
  H  3231  1  0.21966800  0.10116900  0.57190000  1
  H  3232  1  0.21504200  0.07583900  0.48786400  1
  H  3237  1  0.29433900  0.08046800  0.54725700  1
  H  3240  1  0.29951200  0.10614400  0.51063400  1
  H  3247  1  0.71740700  0.09874200  0.57464600  1
  H  3254  1  0.71594600  0.07098700  0.48069900  1
  H  3255  1  0.76440400  0.10114500  0.48175400  1
  H  3256  1  0.76896700  0.07582300  0.56578300  1
  H  3261  1  0.68969500  0.08052100  0.50634900  1
  H  3264  1  0.68452500  0.10618600  0.54299000  1
  H  3271  1  0.88530200  0.53986100  0.30139900  1
  H  3278  1  0.91302700  0.44590700  0.30290700  1
  H  3279  1  0.88287100  0.44694200  0.25445500  1
  H  3280  1  0.90819500  0.53096300  0.24983200  1
  H  3285  1  0.90351300  0.47157500  0.32914700  1
  H  3288  1  0.87785600  0.50822400  0.33430100  1
  H  3295  1  0.88529700  0.44417800  0.75221600  1
  H  3302  1  0.91305800  0.53811900  0.75074600  1
  H  3303  1  0.88286000  0.53708800  0.79918100  1
  H  3304  1  0.90819000  0.45305300  0.80378700  1
  H  3309  1  0.90354100  0.51246100  0.72449900  1
  H  3312  1  0.87786800  0.47583100  0.71932400  1
  H  3319  1  0.09873900  0.53984100  0.75220400  1
  H  3326  1  0.07099100  0.44589100  0.75074400  1
  H  3327  1  0.10114900  0.44695000  0.79920200  1
  H  3328  1  0.07582100  0.53097700  0.80376400  1
  H  3333  1  0.08052200  0.47154300  0.72449300  1
  H  3336  1  0.10618500  0.50818600  0.71932200  1
  H  3343  1  0.09872500  0.44417800  0.30141300  1
  H  3350  1  0.07096100  0.53811500  0.30289200  1
  H  3351  1  0.10116400  0.53709400  0.25446600  1
  H  3352  1  0.07584100  0.45305700  0.24983900  1
  H  3357  1  0.08046700  0.51245100  0.32913600  1
  H  3360  1  0.10614500  0.47582800  0.33431000  1
  C  1  1  0.24017500  0.09085300  0.42855500  1
  C  2  1  0.23901600  0.07208700  0.42444900  1
  C  3  1  0.23825100  0.05866800  0.43813100  1
  C  4  1  0.23795100  0.06471700  0.45632600  1
  C  5  1  0.23909900  0.08327400  0.46112800  1
  C  6  1  0.24042100  0.09663400  0.44711800  1
  C  9  1  0.24062300  0.10331000  0.41355100  1
  C  10  1  0.25541300  0.10437100  0.40105100  1
  C  11  1  0.25417000  0.11656800  0.38596700  1
  C  12  1  0.23936700  0.12886000  0.38508200  1
  C  13  1  0.22510500  0.12885000  0.39797400  1
  C  14  1  0.22563200  0.11511400  0.41138800  1
  C  23  1  0.74385100  0.89316000  0.42855400  1
  C  24  1  0.74501500  0.91192500  0.42444300  1
  C  25  1  0.74577000  0.92534500  0.43812400  1
  C  26  1  0.74606100  0.91929900  0.45631900  1
  C  27  1  0.74492300  0.90074300  0.46112500  1
  C  28  1  0.74360400  0.88738100  0.44711500  1
  C  31  1  0.74340300  0.88070000  0.41354900  1
  C  32  1  0.72861600  0.87964100  0.40104700  1
  C  33  1  0.72986100  0.86744300  0.38596500  1
  C  34  1  0.74466200  0.85515000  0.38508100  1
  C  35  1  0.75892300  0.85516000  0.39797400  1
  C  36  1  0.75839300  0.86889400  0.41139100  1
  C  45  1  0.74384600  0.09086300  0.62508300  1
  C  46  1  0.74500800  0.07209800  0.62919300  1
  C  47  1  0.74575700  0.05867600  0.61551300  1
  C  48  1  0.74605200  0.06472200  0.59731700  1
  C  49  1  0.74490800  0.08327800  0.59251400  1
  C  50  1  0.74360000  0.09664200  0.60652100  1
  C  53  1  0.74339900  0.10332200  0.64008700  1
  C  54  1  0.72861200  0.10438200  0.65258900  1
  C  55  1  0.72986500  0.11657300  0.66767800  1
  C  56  1  0.74466600  0.12886400  0.66856200  1
  C  57  1  0.75892300  0.12885900  0.65566400  1
  C  58  1  0.75839200  0.11512600  0.64224700  1
  C  67  1  0.24016000  0.89317600  0.62508200  1
  C  68  1  0.23899500  0.91194000  0.62919300  1
  C  69  1  0.23824300  0.92536100  0.61551300  1
  C  70  1  0.23793800  0.91931600  0.59731700  1
  C  71  1  0.23906100  0.90075900  0.59251100  1
  C  72  1  0.24039800  0.88739700  0.60651900  1
  C  75  1  0.24061100  0.88071400  0.64008400  1
  C  76  1  0.25540000  0.87965400  0.65258400  1
  C  77  1  0.25415500  0.86745800  0.66766900  1
  C  78  1  0.23935100  0.85516800  0.66855400  1
  C  79  1  0.22509300  0.85517500  0.65565900  1
  C  80  1  0.22561800  0.86891200  0.64224500  1
  C  89  1  0.39375000  0.24016300  0.12565600  1
  C  90  1  0.38964300  0.23900500  0.10688900  1
  C  91  1  0.40332600  0.23824300  0.09347100  1
  C  92  1  0.42151900  0.23794300  0.09952000  1
  C  93  1  0.42632200  0.23909000  0.11807700  1
  C  94  1  0.41231100  0.24041000  0.13143700  1
  C  97  1  0.37874400  0.24061100  0.13811300  1
  C  98  1  0.36624400  0.25540000  0.13917600  1
  C  99  1  0.35116000  0.25415500  0.15137000  1
  C  100  1  0.35027400  0.23935200  0.16366100  1
  C  101  1  0.36316600  0.22509000  0.16365000  1
  C  102  1  0.37658100  0.22561800  0.14991500  1
  C  111  1  0.39374900  0.74385300  0.92796500  1
  C  112  1  0.38963800  0.74501500  0.94673100  1
  C  113  1  0.40331900  0.74577000  0.96015200  1
  C  114  1  0.42151400  0.74606100  0.95410500  1
  C  115  1  0.42631900  0.74492400  0.93554900  1
  C  116  1  0.41231000  0.74360600  0.92218700  1
  C  119  1  0.37874400  0.74340500  0.91550600  1
  C  120  1  0.36624100  0.72861700  0.91444700  1
  C  121  1  0.35115900  0.72986200  0.90225000  1
  C  122  1  0.35027500  0.74466300  0.88995900  1
  C  123  1  0.36316800  0.75892500  0.88996800  1
  C  124  1  0.37658400  0.75839500  0.90370200  1
  C  133  1  0.59027800  0.74384500  0.12566900  1
  C  134  1  0.59438900  0.74500800  0.10690400  1
  C  135  1  0.58070700  0.74575700  0.09348300  1
  C  136  1  0.56251100  0.74605200  0.09952900  1
  C  137  1  0.55770800  0.74490800  0.11808400  1
  C  138  1  0.57171500  0.74359900  0.13144800  1
  C  141  1  0.60528100  0.74339800  0.13812900  1
  C  142  1  0.61778500  0.72861100  0.13918800  1
  C  143  1  0.63287400  0.72986400  0.15137800  1
  C  144  1  0.63375500  0.74466500  0.16367100  1
  C  145  1  0.62085700  0.75892100  0.16366700  1
  C  146  1  0.60744000  0.75838900  0.14993400  1
  C  155  1  0.59027500  0.24017100  0.92797900  1
  C  156  1  0.59438700  0.23900500  0.94674200  1
  C  157  1  0.58070600  0.23825100  0.96016400  1
  C  158  1  0.56251100  0.23794500  0.95411900  1
  C  159  1  0.55770600  0.23907000  0.93556200  1
  C  160  1  0.57171300  0.24040700  0.92220100  1
  C  163  1  0.60527700  0.24062300  0.91551800  1
  C  164  1  0.61777700  0.25541200  0.91445800  1
  C  165  1  0.63286200  0.25416800  0.90226000  1
  C  166  1  0.63374700  0.23936600  0.88996900  1
  C  167  1  0.62085200  0.22510800  0.88997500  1
  C  168  1  0.60743800  0.22563200  0.90371300  1
  C  177  1  0.09085600  0.39375000  0.27497200  1
  C  178  1  0.07209000  0.38964300  0.27381300  1
  C  179  1  0.05867100  0.40332400  0.27305000  1
  C  180  1  0.06472100  0.42151900  0.27275000  1
  C  181  1  0.08327700  0.42632200  0.27389600  1
  C  182  1  0.09663700  0.41231100  0.27521800  1
  C  185  1  0.10331400  0.37874400  0.27542000  1
  C  186  1  0.10437600  0.36624500  0.29021100  1
  C  187  1  0.11657400  0.35116200  0.28896700  1
  C  188  1  0.12886400  0.35027700  0.27416500  1
  C  189  1  0.12885300  0.36316800  0.25990100  1
  C  190  1  0.11511600  0.37658100  0.26042800  1
  C  199  1  0.89316600  0.39374900  0.77866100  1
  C  200  1  0.91193100  0.38963900  0.77982300  1
  C  201  1  0.92535200  0.40331900  0.78057600  1
  C  202  1  0.91930500  0.42151500  0.78086800  1
  C  203  1  0.90074900  0.42631900  0.77972900  1
  C  204  1  0.88738700  0.41231000  0.77841400  1
  C  207  1  0.88070700  0.37874400  0.77821400  1
  C  208  1  0.87964800  0.36624100  0.76342700  1
  C  209  1  0.86745200  0.35115600  0.76467300  1
  C  210  1  0.85516100  0.35027300  0.77947500  1
  C  211  1  0.85517100  0.36316600  0.79373600  1
  C  212  1  0.86890300  0.37658400  0.79320500  1
  C  221  1  0.09085900  0.59027800  0.77864300  1
  C  222  1  0.07209400  0.59438700  0.77980700  1
  C  223  1  0.05867300  0.58070600  0.78055600  1
  C  224  1  0.06471900  0.56251100  0.78085100  1
  C  225  1  0.08327500  0.55770700  0.77970600  1
  C  226  1  0.09663900  0.57171500  0.77839800  1
  C  229  1  0.10331900  0.60528100  0.77819700  1
  C  230  1  0.10437800  0.61778400  0.76340900  1
  C  231  1  0.11656700  0.63287400  0.76466200  1
  C  232  1  0.12886000  0.63375700  0.77946300  1
  C  233  1  0.12885600  0.62085700  0.79371900  1
  C  234  1  0.11512300  0.60744000  0.79318800  1
  C  243  1  0.89316800  0.59027700  0.27497000  1
  C  244  1  0.91193300  0.59438700  0.27380400  1
  C  245  1  0.92535500  0.58070700  0.27304900  1
  C  246  1  0.91930900  0.56251300  0.27274300  1
  C  247  1  0.90075200  0.55770700  0.27386900  1
  C  248  1  0.88739100  0.57171400  0.27520600  1
  C  251  1  0.88070700  0.60527900  0.27542000  1
  C  252  1  0.87964700  0.61777900  0.29021100  1
  C  253  1  0.86745000  0.63286200  0.28896700  1
  C  254  1  0.85515700  0.63374700  0.27416500  1
  C  255  1  0.85516400  0.62085100  0.25990500  1
  C  256  1  0.86890200  0.60743800  0.26043100  1
  C  265  1  0.09085300  0.24017500  0.62507500  1
  C  266  1  0.07208700  0.23901600  0.62918200  1
  C  267  1  0.05866800  0.23825100  0.61549900  1
  C  268  1  0.06471700  0.23795100  0.59730600  1
  C  269  1  0.08327400  0.23909900  0.59250300  1
  C  270  1  0.09663400  0.24042100  0.60651400  1
  C  273  1  0.10331000  0.24062300  0.64008100  1
  C  274  1  0.10437100  0.25541300  0.65258100  1
  C  275  1  0.11656800  0.25417000  0.66766300  1
  C  276  1  0.12886000  0.23936700  0.66854800  1
  C  277  1  0.12885000  0.22510500  0.65565700  1
  C  278  1  0.11511400  0.22563200  0.64224200  1
  C  287  1  0.89316000  0.74385100  0.62507800  1
  C  288  1  0.91192500  0.74501500  0.62918700  1
  C  289  1  0.92534500  0.74577000  0.61550700  1
  C  290  1  0.91929900  0.74606100  0.59731100  1
  C  291  1  0.90074300  0.74492300  0.59250700  1
  C  292  1  0.88738100  0.74360400  0.60651500  1
  C  295  1  0.88070000  0.74340300  0.64008100  1
  C  296  1  0.87964100  0.72861600  0.65258500  1
  C  297  1  0.86744300  0.72986100  0.66766700  1
  C  298  1  0.85515000  0.74466200  0.66855100  1
  C  299  1  0.85516000  0.75892300  0.65565700  1
  C  300  1  0.86889400  0.75839300  0.64224100  1
  C  309  1  0.09086300  0.74384600  0.42854700  1
  C  310  1  0.07209800  0.74500800  0.42443800  1
  C  311  1  0.05867600  0.74575700  0.43811900  1
  C  312  1  0.06472200  0.74605200  0.45631400  1
  C  313  1  0.08327800  0.74490800  0.46111800  1
  C  314  1  0.09664200  0.74360000  0.44711000  1
  C  317  1  0.10332200  0.74339900  0.41354400  1
  C  318  1  0.10438200  0.72861200  0.40104100  1
  C  319  1  0.11657300  0.72986500  0.38595200  1
  C  320  1  0.12886400  0.74466600  0.38507000  1
  C  321  1  0.12885900  0.75892300  0.39796800  1
  C  322  1  0.11512600  0.75839200  0.41138500  1
  C  331  1  0.89317600  0.24016000  0.42855000  1
  C  332  1  0.91194000  0.23899500  0.42443900  1
  C  333  1  0.92536100  0.23824300  0.43811900  1
  C  334  1  0.91931600  0.23793800  0.45631400  1
  C  335  1  0.90075900  0.23906100  0.46112000  1
  C  336  1  0.88739700  0.24039800  0.44711300  1
  C  339  1  0.88071400  0.24061100  0.41354800  1
  C  340  1  0.87965400  0.25540000  0.40104800  1
  C  341  1  0.86745800  0.25415500  0.38596300  1
  C  342  1  0.85516800  0.23935100  0.38507700  1
  C  343  1  0.85517500  0.22509300  0.39797200  1
  C  344  1  0.86891200  0.22561800  0.41138500  1
  C  353  1  0.24016300  0.39375000  0.92797600  1
  C  354  1  0.23900500  0.38964300  0.94674200  1
  C  355  1  0.23824300  0.40332600  0.96016000  1
  C  356  1  0.23794300  0.42151900  0.95411100  1
  C  357  1  0.23909000  0.42632200  0.93555500  1
  C  358  1  0.24041000  0.41231100  0.92219400  1
  C  361  1  0.24061100  0.37874400  0.91551800  1
  C  362  1  0.25540000  0.36624400  0.91445600  1
  C  363  1  0.25415500  0.35116000  0.90226000  1
  C  364  1  0.23935200  0.35027400  0.88997100  1
  C  365  1  0.22509000  0.36316600  0.88998000  1
  C  366  1  0.22561800  0.37658100  0.90371700  1
  C  375  1  0.74385300  0.39374900  0.12566600  1
  C  376  1  0.74501500  0.38963800  0.10690100  1
  C  377  1  0.74577000  0.40331900  0.09348000  1
  C  378  1  0.74606100  0.42151400  0.09952600  1
  C  379  1  0.74492400  0.42631900  0.11808200  1
  C  380  1  0.74360600  0.41231000  0.13144400  1
  C  383  1  0.74340500  0.37874400  0.13812500  1
  C  384  1  0.72861700  0.36624100  0.13918500  1
  C  385  1  0.72986200  0.35115900  0.15138200  1
  C  386  1  0.74466300  0.35027500  0.16367300  1
  C  387  1  0.75892500  0.36316800  0.16366400  1
  C  388  1  0.75839500  0.37658400  0.14993000  1
  C  397  1  0.74384500  0.59027800  0.92796200  1
  C  398  1  0.74500800  0.59438900  0.94672700  1
  C  399  1  0.74575700  0.58070700  0.96014900  1
  C  400  1  0.74605200  0.56251100  0.95410300  1
  C  401  1  0.74490800  0.55770800  0.93554700  1
  C  402  1  0.74359900  0.57171500  0.92218300  1
  C  405  1  0.74339800  0.60528100  0.91550300  1
  C  406  1  0.72861100  0.61778500  0.91444300  1
  C  407  1  0.72986400  0.63287400  0.90225400  1
  C  408  1  0.74466500  0.63375500  0.88996000  1
  C  409  1  0.75892100  0.62085700  0.88996400  1
  C  410  1  0.75838900  0.60744000  0.90369800  1
  C  419  1  0.24017100  0.59027500  0.12565300  1
  C  420  1  0.23900500  0.59438700  0.10688800  1
  C  421  1  0.23825100  0.58070600  0.09346700  1
  C  422  1  0.23794500  0.56251100  0.09951200  1
  C  423  1  0.23907000  0.55770600  0.11806900  1
  C  424  1  0.24040700  0.57171300  0.13143100  1
  C  427  1  0.24062300  0.60527700  0.13811400  1
  C  428  1  0.25541200  0.61777700  0.13917400  1
  C  429  1  0.25416800  0.63286200  0.15137000  1
  C  430  1  0.23936600  0.63374700  0.16366300  1
  C  431  1  0.22510800  0.62085200  0.16365700  1
  C  432  1  0.22563200  0.60743800  0.14991900  1
  C  441  1  0.39375000  0.09085600  0.77866000  1
  C  442  1  0.38964300  0.07209000  0.77981800  1
  C  443  1  0.40332400  0.05867100  0.78058200  1
  C  444  1  0.42151900  0.06472100  0.78088200  1
  C  445  1  0.42632200  0.08327700  0.77973500  1
  C  446  1  0.41231100  0.09663700  0.77841400  1
  C  449  1  0.37874400  0.10331400  0.77821000  1
  C  450  1  0.36624500  0.10437600  0.76342100  1
  C  451  1  0.35116200  0.11657400  0.76466500  1
  C  452  1  0.35027700  0.12886400  0.77946700  1
  C  453  1  0.36316800  0.12885300  0.79372900  1
  C  454  1  0.37658100  0.11511600  0.79320300  1
  C  463  1  0.39374900  0.89316600  0.27497000  1
  C  464  1  0.38963900  0.91193100  0.27380800  1
  C  465  1  0.40331900  0.92535200  0.27305600  1
  C  466  1  0.42151500  0.91930500  0.27276400  1
  C  467  1  0.42631900  0.90074900  0.27390100  1
  C  468  1  0.41231000  0.88738700  0.27521800  1
  C  471  1  0.37874400  0.88070700  0.27541800  1
  C  472  1  0.36624100  0.87964800  0.29020400  1
  C  473  1  0.35115600  0.86745200  0.28895800  1
  C  474  1  0.35027300  0.85516100  0.27415500  1
  C  475  1  0.36316600  0.85517100  0.25989400  1
  C  476  1  0.37658400  0.86890300  0.26042500  1
  C  485  1  0.59027800  0.09085900  0.27498900  1
  C  486  1  0.59438700  0.07209400  0.27382500  1
  C  487  1  0.58070600  0.05867300  0.27307500  1
  C  488  1  0.56251100  0.06471900  0.27278100  1
  C  489  1  0.55770700  0.08327500  0.27392600  1
  C  490  1  0.57171500  0.09663900  0.27523400  1
  C  493  1  0.60528100  0.10331900  0.27543500  1
  C  494  1  0.61778400  0.10437800  0.29022300  1
  C  495  1  0.63287400  0.11656700  0.28897000  1
  C  496  1  0.63375700  0.12886000  0.27416900  1
  C  497  1  0.62085700  0.12885600  0.25991200  1
  C  498  1  0.60744000  0.11512300  0.26044400  1
  C  507  1  0.59027700  0.89316800  0.77866100  1
  C  508  1  0.59438700  0.91193300  0.77982800  1
  C  509  1  0.58070700  0.92535500  0.78058200  1
  C  510  1  0.56251300  0.91930900  0.78088700  1
  C  511  1  0.55770700  0.90075200  0.77976300  1
  C  512  1  0.57171400  0.88739100  0.77842500  1
  C  515  1  0.60527900  0.88070700  0.77821000  1
  C  516  1  0.61777900  0.87964700  0.76342100  1
  C  517  1  0.63286200  0.86745000  0.76466500  1
  C  518  1  0.63374700  0.85515700  0.77946600  1
  C  519  1  0.62085100  0.85516400  0.79372500  1
  C  520  1  0.60743800  0.86890200  0.79320100  1
  C  529  1  0.74366000  0.89349100  0.62708400  1
  C  530  1  0.74696400  0.91204400  0.63107800  1
  C  531  1  0.74793400  0.92532700  0.61730200  1
  C  532  1  0.74556700  0.91956200  0.59920400  1
  C  533  1  0.74222800  0.90125200  0.59459200  1
  C  534  1  0.74109300  0.88792500  0.60862600  1
  C  537  1  0.74323500  0.88098800  0.64202900  1
  C  538  1  0.72919400  0.88092700  0.65545000  1
  C  539  1  0.73025600  0.86819100  0.67005900  1
  C  540  1  0.74475600  0.85562400  0.67078800  1
  C  541  1  0.75843800  0.85526700  0.65738000  1
  C  542  1  0.75753900  0.86819900  0.64325800  1
  C  551  1  0.24036600  0.09055000  0.62709000  1
  C  552  1  0.23706000  0.07199800  0.63108500  1
  C  553  1  0.23609800  0.05871200  0.61730900  1
  C  554  1  0.23848100  0.06447400  0.59921200  1
  C  555  1  0.24181600  0.08278500  0.59459900  1
  C  556  1  0.24293900  0.09611500  0.60863200  1
  C  559  1  0.24079000  0.10305400  0.64203300  1
  C  560  1  0.25482700  0.10311400  0.65545700  1
  C  561  1  0.25376200  0.11585000  0.67006600  1
  C  562  1  0.23926300  0.12841600  0.67079200  1
  C  563  1  0.22558300  0.12877300  0.65738300  1
  C  564  1  0.22648300  0.11584100  0.64325900  1
  C  573  1  0.24036500  0.89348100  0.42654800  1
  C  574  1  0.23706800  0.91203700  0.42256100  1
  C  575  1  0.23610900  0.92531700  0.43634200  1
  C  576  1  0.23848200  0.91954300  0.45443600  1
  C  577  1  0.24181400  0.90123000  0.45904100  1
  C  578  1  0.24293600  0.88790700  0.44500300  1
  C  581  1  0.24078600  0.88098300  0.41159900  1
  C  582  1  0.25482900  0.88092000  0.39818100  1
  C  583  1  0.25376900  0.86818100  0.38357300  1
  C  584  1  0.23926300  0.85562600  0.38283500  1
  C  585  1  0.22558000  0.85526600  0.39624400  1
  C  586  1  0.22647800  0.86819900  0.41036600  1
  C  595  1  0.74367600  0.09053000  0.42655000  1
  C  596  1  0.74697500  0.07197500  0.42255900  1
  C  597  1  0.74795000  0.05869400  0.43633800  1
  C  598  1  0.74558500  0.06446400  0.45443500  1
  C  599  1  0.74225200  0.08277600  0.45904400  1
  C  600  1  0.74111700  0.09610100  0.44500800  1
  C  603  1  0.74325000  0.10303100  0.41160400  1
  C  604  1  0.72920800  0.10309000  0.39818500  1
  C  605  1  0.73027200  0.11582300  0.38357300  1
  C  606  1  0.74477700  0.12838100  0.38283400  1
  C  607  1  0.75845400  0.12874700  0.39624800  1
  C  608  1  0.75755700  0.11581600  0.41037100  1
  C  617  1  0.59227900  0.74366700  0.92829600  1
  C  618  1  0.59627300  0.74697100  0.94684900  1
  C  619  1  0.58249700  0.74793900  0.96013400  1
  C  620  1  0.56439800  0.74557100  0.95436700  1
  C  621  1  0.55978700  0.74223200  0.93605700  1
  C  622  1  0.57382100  0.74109800  0.92273000  1
  C  625  1  0.60722400  0.74324200  0.91579400  1
  C  626  1  0.62064600  0.72920200  0.91573400  1
  C  627  1  0.63525500  0.73026400  0.90299600  1
  C  628  1  0.63598300  0.74476400  0.89043000  1
  C  629  1  0.62257500  0.75844500  0.89007300  1
  C  630  1  0.60845100  0.75754600  0.90300400  1
  C  639  1  0.59228300  0.24036800  0.12535300  1
  C  640  1  0.59627800  0.23706200  0.10680000  1
  C  641  1  0.58250300  0.23610000  0.09351400  1
  C  642  1  0.56440600  0.23848100  0.09927600  1
  C  643  1  0.55979400  0.24181500  0.11758700  1
  C  644  1  0.57382500  0.24294200  0.13091700  1
  C  647  1  0.60722800  0.24079000  0.13785600  1
  C  648  1  0.62065000  0.25482800  0.13791600  1
  C  649  1  0.63526100  0.25376400  0.15065200  1
  C  650  1  0.63598700  0.23926400  0.16321700  1
  C  651  1  0.62257700  0.22558300  0.16357400  1
  C  652  1  0.60845400  0.22648400  0.15064300  1
  C  661  1  0.39174100  0.24036500  0.92828400  1
  C  662  1  0.38775500  0.23706600  0.94684000  1
  C  663  1  0.40153700  0.23610800  0.96011900  1
  C  664  1  0.41963100  0.23848200  0.95434600  1
  C  665  1  0.42423400  0.24181500  0.93603300  1
  C  666  1  0.41019600  0.24293800  0.92271000  1
  C  669  1  0.37679200  0.24078500  0.91578500  1
  C  670  1  0.36337500  0.25482800  0.91572300  1
  C  671  1  0.34876600  0.25376800  0.90298400  1
  C  672  1  0.34803000  0.23926100  0.89042700  1
  C  673  1  0.36143800  0.22558000  0.89006900  1
  C  674  1  0.37556000  0.22647600  0.90300200  1
  C  683  1  0.39174500  0.74367000  0.12533600  1
  C  684  1  0.38775400  0.74697000  0.10678100  1
  C  685  1  0.40153300  0.74794400  0.09350000  1
  C  686  1  0.41963000  0.74558100  0.09927000  1
  C  687  1  0.42423800  0.74224700  0.11758200  1
  C  688  1  0.41020300  0.74111100  0.13090600  1
  C  691  1  0.37679900  0.74324300  0.13783700  1
  C  692  1  0.36338100  0.72920100  0.13789700  1
  C  693  1  0.34876700  0.73026400  0.15062900  1
  C  694  1  0.34802700  0.74476900  0.16318600  1
  C  695  1  0.36144100  0.75844700  0.16355300  1
  C  696  1  0.37556500  0.75755000  0.15062200  1
  C  705  1  0.89348700  0.59227900  0.77846100  1
  C  706  1  0.91204000  0.59627400  0.78176600  1
  C  707  1  0.92532500  0.58249800  0.78273500  1
  C  708  1  0.91955900  0.56440000  0.78036900  1
  C  709  1  0.90124900  0.55978800  0.77703100  1
  C  710  1  0.88792100  0.57382100  0.77589600  1
  C  713  1  0.88098300  0.60722400  0.77803600  1
  C  714  1  0.88092300  0.62064400  0.76399700  1
  C  715  1  0.86818500  0.63525400  0.76505900  1
  C  716  1  0.85562000  0.63598300  0.77955800  1
  C  717  1  0.85526300  0.62257500  0.79324100  1
  C  718  1  0.86819600  0.60845200  0.79234200  1
  C  727  1  0.09054300  0.59228300  0.27516400  1
  C  728  1  0.07199000  0.59627700  0.27185700  1
  C  729  1  0.05870500  0.58250200  0.27089700  1
  C  730  1  0.06446800  0.56440500  0.27328000  1
  C  731  1  0.08277900  0.55979200  0.27661400  1
  C  732  1  0.09610800  0.57382500  0.27773800  1
  C  735  1  0.10304700  0.60722800  0.27558600  1
  C  736  1  0.10310500  0.62065100  0.28962300  1
  C  737  1  0.11584100  0.63526200  0.28855700  1
  C  738  1  0.12840800  0.63598700  0.27405900  1
  C  739  1  0.12876500  0.62257700  0.26037900  1
  C  740  1  0.11583400  0.60845400  0.26127900  1
  C  749  1  0.89348500  0.39174200  0.27516800  1
  C  750  1  0.91204100  0.38775500  0.27186900  1
  C  751  1  0.92532100  0.40153800  0.27091100  1
  C  752  1  0.91954600  0.41963200  0.27328500  1
  C  753  1  0.90123300  0.42423600  0.27661600  1
  C  754  1  0.88791000  0.41019600  0.27773900  1
  C  757  1  0.88098700  0.37679200  0.27558700  1
  C  758  1  0.88092400  0.36337500  0.28963100  1
  C  759  1  0.86818700  0.34876600  0.28857100  1
  C  760  1  0.85563000  0.34802900  0.27406400  1
  C  761  1  0.85527000  0.36143800  0.26038300  1
  C  762  1  0.86820200  0.37556000  0.26128000  1
  C  771  1  0.09053700  0.39174500  0.77847200  1
  C  772  1  0.07198200  0.38775200  0.78177200  1
  C  773  1  0.05870100  0.40153100  0.78274800  1
  C  774  1  0.06447000  0.41962800  0.78038400  1
  C  775  1  0.08278100  0.42423800  0.77705000  1
  C  776  1  0.09610700  0.41020300  0.77591300  1
  C  779  1  0.10303800  0.37679900  0.77804600  1
  C  780  1  0.10309900  0.36338100  0.76400400  1
  C  781  1  0.11583200  0.34876700  0.76506700  1
  C  782  1  0.12838800  0.34802900  0.77957300  1
  C  783  1  0.12875400  0.36144100  0.79325000  1
  C  784  1  0.11582300  0.37556600  0.79235400  1
  C  793  1  0.89349100  0.74366000  0.42654600  1
  C  794  1  0.91204400  0.74696400  0.42255200  1
  C  795  1  0.92532700  0.74793400  0.43633000  1
  C  796  1  0.91956200  0.74556700  0.45442700  1
  C  797  1  0.90125200  0.74222800  0.45903800  1
  C  798  1  0.88792500  0.74109300  0.44500400  1
  C  801  1  0.88098800  0.74323500  0.41160100  1
  C  802  1  0.88092700  0.72919400  0.39818100  1
  C  803  1  0.86819100  0.73025600  0.38357100  1
  C  804  1  0.85562400  0.74475600  0.38284200  1
  C  805  1  0.85526700  0.75843800  0.39625000  1
  C  806  1  0.86819900  0.75753900  0.41037400  1
  C  815  1  0.09055000  0.24036600  0.42654200  1
  C  816  1  0.07199800  0.23706000  0.42254700  1
  C  817  1  0.05871200  0.23609800  0.43632200  1
  C  818  1  0.06447400  0.23848100  0.45441900  1
  C  819  1  0.08278500  0.24181600  0.45903200  1
  C  820  1  0.09611500  0.24293900  0.44500000  1
  C  823  1  0.10305400  0.24079000  0.41159700  1
  C  824  1  0.10311400  0.25482700  0.39817500  1
  C  825  1  0.11585000  0.25376200  0.38356400  1
  C  826  1  0.12841600  0.23926300  0.38283800  1
  C  827  1  0.12877300  0.22558300  0.39624800  1
  C  828  1  0.11584100  0.22648300  0.41037100  1
  C  837  1  0.89348100  0.24036500  0.62708400  1
  C  838  1  0.91203700  0.23706800  0.63107100  1
  C  839  1  0.92531700  0.23610900  0.61728900  1
  C  840  1  0.91954300  0.23848200  0.59919400  1
  C  841  1  0.90123000  0.24181400  0.59459100  1
  C  842  1  0.88790700  0.24293600  0.60862900  1
  C  845  1  0.88098300  0.24078600  0.64203300  1
  C  846  1  0.88092000  0.25482900  0.65545000  1
  C  847  1  0.86818100  0.25376900  0.67005900  1
  C  848  1  0.85562600  0.23926300  0.67079700  1
  C  849  1  0.85526600  0.22558000  0.65738800  1
  C  850  1  0.86819900  0.22647800  0.64326500  1
  C  859  1  0.09053000  0.74367600  0.62708000  1
  C  860  1  0.07197500  0.74697500  0.63107100  1
  C  861  1  0.05869400  0.74795000  0.61729300  1
  C  862  1  0.06446400  0.74558500  0.59919600  1
  C  863  1  0.08277600  0.74225200  0.59458700  1
  C  864  1  0.09610100  0.74111700  0.60862200  1
  C  867  1  0.10303100  0.74325000  0.64202800  1
  C  868  1  0.10309000  0.72920800  0.65544600  1
  C  869  1  0.11582300  0.73027200  0.67005900  1
  C  870  1  0.12838100  0.74477700  0.67079800  1
  C  871  1  0.12874700  0.75845400  0.65738400  1
  C  872  1  0.11581600  0.75755700  0.64325900  1
  C  881  1  0.74366700  0.59227900  0.12533400  1
  C  882  1  0.74697100  0.59627300  0.10678100  1
  C  883  1  0.74793900  0.58249700  0.09349700  1
  C  884  1  0.74557100  0.56439800  0.09926300  1
  C  885  1  0.74223200  0.55978700  0.11757400  1
  C  886  1  0.74109800  0.57382100  0.13090100  1
  C  889  1  0.74324200  0.60722400  0.13783800  1
  C  890  1  0.72920200  0.62064600  0.13789800  1
  C  891  1  0.73026400  0.63525500  0.15063400  1
  C  892  1  0.74476400  0.63598300  0.16320100  1
  C  893  1  0.75844500  0.62257500  0.16355900  1
  C  894  1  0.75754600  0.60845100  0.15062600  1
  C  903  1  0.24036800  0.59228300  0.92827900  1
  C  904  1  0.23706200  0.59627800  0.94683000  1
  C  905  1  0.23610000  0.58250300  0.96011700  1
  C  906  1  0.23848100  0.56440600  0.95435500  1
  C  907  1  0.24181500  0.55979400  0.93604400  1
  C  908  1  0.24294200  0.57382500  0.92271400  1
  C  911  1  0.24079000  0.60722800  0.91577400  1
  C  912  1  0.25482800  0.62065000  0.91571500  1
  C  913  1  0.25376400  0.63526100  0.90297900  1
  C  914  1  0.23926400  0.63598700  0.89041300  1
  C  915  1  0.22558300  0.62257700  0.89005600  1
  C  916  1  0.22648400  0.60845400  0.90298800  1
  C  925  1  0.24036500  0.39174100  0.12534700  1
  C  926  1  0.23706600  0.38775500  0.10679100  1
  C  927  1  0.23610800  0.40153700  0.09351200  1
  C  928  1  0.23848200  0.41963100  0.09928500  1
  C  929  1  0.24181500  0.42423400  0.11759800  1
  C  930  1  0.24293800  0.41019600  0.13092100  1
  C  933  1  0.24078500  0.37679200  0.13784500  1
  C  934  1  0.25482800  0.36337500  0.13790900  1
  C  935  1  0.25376800  0.34876600  0.15064800  1
  C  936  1  0.23926100  0.34803000  0.16320400  1
  C  937  1  0.22558000  0.36143800  0.16356300  1
  C  938  1  0.22647600  0.37556000  0.15063000  1
  C  947  1  0.74367000  0.39174500  0.92829600  1
  C  948  1  0.74697000  0.38775400  0.94684900  1
  C  949  1  0.74794400  0.40153300  0.96013100  1
  C  950  1  0.74558100  0.41963000  0.95436100  1
  C  951  1  0.74224700  0.42423800  0.93604900  1
  C  952  1  0.74111100  0.41020300  0.92272500  1
  C  955  1  0.74324300  0.37679900  0.91579500  1
  C  956  1  0.72920100  0.36338100  0.91573500  1
  C  957  1  0.73026400  0.34876700  0.90300200  1
  C  958  1  0.74476900  0.34802700  0.89044500  1
  C  959  1  0.75844700  0.36144100  0.89007800  1
  C  960  1  0.75755000  0.37556500  0.90301000  1
  C  969  1  0.59227900  0.89348700  0.27516900  1
  C  970  1  0.59627400  0.91204000  0.27186500  1
  C  971  1  0.58249800  0.92532500  0.27089600  1
  C  972  1  0.56440000  0.91955900  0.27326200  1
  C  973  1  0.55978800  0.90124900  0.27660100  1
  C  974  1  0.57382100  0.88792100  0.27773600  1
  C  977  1  0.60722400  0.88098300  0.27559400  1
  C  978  1  0.62064400  0.88092300  0.28963500  1
  C  979  1  0.63525400  0.86818500  0.28857300  1
  C  980  1  0.63598300  0.85562000  0.27407400  1
  C  981  1  0.62257500  0.85526300  0.26039000  1
  C  982  1  0.60845200  0.86819600  0.26128900  1
  C  991  1  0.59228300  0.09054300  0.77846700  1
  C  992  1  0.59627700  0.07199000  0.78177400  1
  C  993  1  0.58250200  0.05870500  0.78273400  1
  C  994  1  0.56440500  0.06446800  0.78035200  1
  C  995  1  0.55979200  0.08277900  0.77701700  1
  C  996  1  0.57382500  0.09610800  0.77589300  1
  C  999  1  0.60722800  0.10304700  0.77804600  1
  C  1000  1  0.62065100  0.10310500  0.76400800  1
  C  1001  1  0.63526200  0.11584100  0.76507400  1
  C  1002  1  0.63598700  0.12840800  0.77957200  1
  C  1003  1  0.62257700  0.12876500  0.79325300  1
  C  1004  1  0.60845400  0.11583400  0.79235200  1
  C  1013  1  0.39174200  0.89348500  0.77846400  1
  C  1014  1  0.38775500  0.91204100  0.78176200  1
  C  1015  1  0.40153800  0.92532100  0.78272000  1
  C  1016  1  0.41963200  0.91954600  0.78034700  1
  C  1017  1  0.42423600  0.90123300  0.77701400  1
  C  1018  1  0.41019600  0.88791000  0.77589200  1
  C  1021  1  0.37679200  0.88098700  0.77804300  1
  C  1022  1  0.36337500  0.88092400  0.76400000  1
  C  1023  1  0.34876600  0.86818700  0.76506000  1
  C  1024  1  0.34802900  0.85563000  0.77956600  1
  C  1025  1  0.36143800  0.85527000  0.79324800  1
  C  1026  1  0.37556000  0.86820200  0.79235200  1
  C  1035  1  0.39174500  0.09053700  0.27515800  1
  C  1036  1  0.38775200  0.07198200  0.27185800  1
  C  1037  1  0.40153100  0.05870100  0.27088400  1
  C  1038  1  0.41962800  0.06447000  0.27324800  1
  C  1039  1  0.42423800  0.08278100  0.27658200  1
  C  1040  1  0.41020300  0.09610700  0.27771700  1
  C  1043  1  0.37679900  0.10303800  0.27558500  1
  C  1044  1  0.36338100  0.10309900  0.28962800  1
  C  1045  1  0.34876700  0.11583200  0.28856500  1
  C  1046  1  0.34802900  0.12838800  0.27405700  1
  C  1047  1  0.36144100  0.12875400  0.26038000  1
  C  1048  1  0.37556600  0.11582300  0.26127800  1
  C  1057  1  0.14206800  0.21144700  0.39576900  1
  C  1058  1  0.15295400  0.20757800  0.41101800  1
  C  1060  1  0.16867600  0.18309400  0.39572600  1
  C  1061  1  0.15813500  0.18659800  0.37981400  1
  C  1062  1  0.14503200  0.20075100  0.38012200  1
  C  1064  1  0.18256700  0.16932600  0.39762400  1
  C  1065  1  0.18903300  0.16210100  0.41440500  1
  C  1066  1  0.20303500  0.14888300  0.41417200  1
  C  1067  1  0.21082400  0.14229400  0.39785200  1
  C  1068  1  0.20394200  0.15005200  0.38171100  1
  C  1073  1  0.18141100  0.16658400  0.43108300  1
  C  1074  1  0.15940800  0.17606500  0.36434300  1
  C  1081  1  0.84197000  0.77257100  0.39577000  1
  C  1082  1  0.83108300  0.77644100  0.41101900  1
  C  1084  1  0.81535700  0.80092200  0.39572600  1
  C  1085  1  0.82589900  0.79741600  0.37981400  1
  C  1086  1  0.83900400  0.78326600  0.38012200  1
  C  1088  1  0.80146600  0.81468800  0.39762400  1
  C  1089  1  0.79499900  0.82191300  0.41440500  1
  C  1090  1  0.78099700  0.83513000  0.41417100  1
  C  1091  1  0.77320800  0.84171900  0.39785100  1
  C  1092  1  0.78008900  0.83396000  0.38171000  1
  C  1097  1  0.80262300  0.81743200  0.43108200  1
  C  1098  1  0.82462400  0.80794900  0.36434200  1
  C  1105  1  0.84197000  0.21144600  0.65786900  1
  C  1106  1  0.83108400  0.20757700  0.64262100  1
  C  1108  1  0.81535900  0.18309500  0.65791200  1
  C  1109  1  0.82590000  0.18660100  0.67382500  1
  C  1110  1  0.83900500  0.20075300  0.67351700  1
  C  1112  1  0.80146700  0.16932900  0.65601500  1
  C  1113  1  0.79499900  0.16210500  0.63923400  1
  C  1114  1  0.78099700  0.14888900  0.63946800  1
  C  1115  1  0.77321100  0.14229700  0.65578800  1
  C  1116  1  0.78009200  0.15005600  0.67192900  1
  C  1121  1  0.80261800  0.16658900  0.62255600  1
  C  1122  1  0.82462500  0.17606800  0.68929700  1
  C  1129  1  0.14204500  0.77258600  0.65786500  1
  C  1130  1  0.15293300  0.77645500  0.64261700  1
  C  1132  1  0.16865800  0.80093600  0.65790800  1
  C  1133  1  0.15811600  0.79743300  0.67382100  1
  C  1134  1  0.14501000  0.78328100  0.67351300  1
  C  1136  1  0.18255100  0.81470200  0.65601000  1
  C  1137  1  0.18902000  0.82192500  0.63923000  1
  C  1138  1  0.20302100  0.83514200  0.63946200  1
  C  1139  1  0.21080900  0.84173100  0.65578200  1
  C  1140  1  0.20392500  0.83397600  0.67192300  1
  C  1145  1  0.18139900  0.81744100  0.62255200  1
  C  1146  1  0.15939000  0.80796600  0.68929100  1
  C  1153  1  0.36096000  0.14205100  0.24624700  1
  C  1154  1  0.37620800  0.15293700  0.24237700  1
  C  1156  1  0.36091700  0.16866100  0.21789400  1
  C  1157  1  0.34500400  0.15812000  0.22140100  1
  C  1158  1  0.34531100  0.14501700  0.23555300  1
  C  1160  1  0.36281500  0.18255100  0.20412600  1
  C  1161  1  0.37959600  0.18901700  0.19690100  1
  C  1162  1  0.37936400  0.20301800  0.18368300  1
  C  1163  1  0.36304400  0.21080800  0.17709400  1
  C  1164  1  0.34690200  0.20392500  0.18485100  1
  C  1169  1  0.39627400  0.18139600  0.20138400  1
  C  1170  1  0.32953200  0.15939600  0.21086800  1
  C  1177  1  0.36095800  0.84197300  0.80738100  1
  C  1178  1  0.37620500  0.83108700  0.81125100  1
  C  1180  1  0.36091400  0.81536100  0.83573100  1
  C  1181  1  0.34500100  0.82590100  0.83222700  1
  C  1182  1  0.34531000  0.83900700  0.81807500  1
  C  1184  1  0.36281300  0.80146900  0.84949800  1
  C  1185  1  0.37959400  0.79500400  0.85672200  1
  C  1186  1  0.37936300  0.78100100  0.86993900  1
  C  1187  1  0.36304300  0.77321100  0.87652700  1
  C  1188  1  0.34690200  0.78009200  0.86876900  1
  C  1193  1  0.39627200  0.80262800  0.85224100  1
  C  1194  1  0.32953000  0.82462700  0.84276000  1
  C  1201  1  0.62305500  0.84196800  0.24625700  1
  C  1202  1  0.60780800  0.83108000  0.24238600  1
  C  1204  1  0.62310100  0.81535600  0.21790600  1
  C  1205  1  0.63901300  0.82589700  0.22141100  1
  C  1206  1  0.63870500  0.83900300  0.23556200  1
  C  1208  1  0.62120500  0.80146300  0.20414000  1
  C  1209  1  0.60442500  0.79499300  0.19691500  1
  C  1210  1  0.60465800  0.78099300  0.18369800  1
  C  1211  1  0.62098000  0.77320800  0.17710600  1
  C  1212  1  0.63712100  0.78009000  0.18486600  1
  C  1217  1  0.58774600  0.80261300  0.20139900  1
  C  1218  1  0.65448500  0.82462400  0.21087800  1
  C  1225  1  0.62305700  0.14206200  0.80738600  1
  C  1226  1  0.60780900  0.15294900  0.81125400  1
  C  1228  1  0.62309900  0.16867300  0.83573700  1
  C  1229  1  0.63901000  0.15813100  0.83223400  1
  C  1230  1  0.63870300  0.14502500  0.81808300  1
  C  1232  1  0.62120100  0.18256600  0.84950200  1
  C  1233  1  0.60442100  0.18903500  0.85672500  1
  C  1234  1  0.60465300  0.20303600  0.86994200  1
  C  1235  1  0.62097400  0.21082500  0.87653100  1
  C  1236  1  0.63711500  0.20394200  0.86877400  1
  C  1241  1  0.58774200  0.18141300  0.85224300  1
  C  1242  1  0.65448100  0.15940300  0.84277000  1
  C  1249  1  0.21144600  0.36095800  0.17685900  1
  C  1250  1  0.20757600  0.37620700  0.18774500  1
  C  1252  1  0.18309400  0.36091600  0.20346900  1
  C  1253  1  0.18659900  0.34500300  0.19292900  1
  C  1254  1  0.20075100  0.34531000  0.17982500  1
  C  1256  1  0.16932600  0.36281500  0.21736100  1
  C  1257  1  0.16210100  0.37959500  0.22382600  1
  C  1258  1  0.14888500  0.37936400  0.23782700  1
  C  1259  1  0.14229700  0.36304400  0.24561900  1
  C  1260  1  0.15005300  0.34690300  0.23873700  1
  C  1265  1  0.16658300  0.39627200  0.21620100  1
  C  1266  1  0.17606600  0.32953100  0.19420500  1
  C  1273  1  0.77257900  0.36095900  0.87678100  1
  C  1274  1  0.77645000  0.37620700  0.86589400  1
  C  1276  1  0.80093100  0.36091600  0.85017000  1
  C  1277  1  0.79742600  0.34500300  0.86071100  1
  C  1278  1  0.78327400  0.34531100  0.87381600  1
  C  1280  1  0.81469800  0.36281300  0.83627800  1
  C  1281  1  0.82192200  0.37959500  0.82981200  1
  C  1282  1  0.83513900  0.37936300  0.81581100  1
  C  1283  1  0.84173000  0.36304300  0.80802100  1
  C  1284  1  0.83397200  0.34690200  0.81490400  1
  C  1289  1  0.81744000  0.39627200  0.83743500  1
  C  1290  1  0.80795900  0.32953100  0.85943600  1
  C  1297  1  0.21144900  0.62305800  0.87676200  1
  C  1298  1  0.20758000  0.60781000  0.86587300  1
  C  1300  1  0.18309500  0.62310300  0.85015200  1
  C  1301  1  0.18659900  0.63901300  0.86069500  1
  C  1302  1  0.20075300  0.63870500  0.87379900  1
  C  1304  1  0.16932900  0.62120500  0.83626100  1
  C  1305  1  0.16210500  0.60442500  0.82979100  1
  C  1306  1  0.14888900  0.60466000  0.81579000  1
  C  1307  1  0.14229500  0.62098000  0.80800500  1
  C  1308  1  0.15005500  0.63712100  0.81488800  1
  C  1313  1  0.16659100  0.58774600  0.83740900  1
  C  1314  1  0.17606500  0.65448500  0.85942300  1
  C  1321  1  0.77257800  0.62305400  0.17685600  1
  C  1322  1  0.77644700  0.60780600  0.18774400  1
  C  1324  1  0.80092700  0.62309700  0.20347000  1
  C  1325  1  0.79742300  0.63901000  0.19292800  1
  C  1326  1  0.78327200  0.63870200  0.17982200  1
  C  1328  1  0.81469200  0.62120100  0.21736300  1
  C  1329  1  0.82191600  0.60442100  0.22383200  1
  C  1330  1  0.83513100  0.60465300  0.23783500  1
  C  1331  1  0.84172000  0.62097300  0.24562400  1
  C  1332  1  0.83396400  0.63711400  0.23874000  1
  C  1337  1  0.81743400  0.58774200  0.21621100  1
  C  1338  1  0.80795600  0.65448200  0.19420300  1
  C  1345  1  0.21144700  0.14206800  0.65786200  1
  C  1346  1  0.20757800  0.15295400  0.64261400  1
  C  1348  1  0.18309400  0.16867600  0.65790400  1
  C  1349  1  0.18659800  0.15813500  0.67381700  1
  C  1350  1  0.20075100  0.14503200  0.67351000  1
  C  1352  1  0.16932600  0.18256700  0.65600600  1
  C  1353  1  0.16210100  0.18903300  0.63922600  1
  C  1354  1  0.14888300  0.20303500  0.63945800  1
  C  1355  1  0.14229400  0.21082400  0.65578000  1
  C  1356  1  0.15005200  0.20394200  0.67192100  1
  C  1361  1  0.16658400  0.18141100  0.62254900  1
  C  1362  1  0.17606500  0.15940800  0.68928700  1
  C  1369  1  0.77257100  0.84197000  0.65786100  1
  C  1370  1  0.77644100  0.83108300  0.64261300  1
  C  1372  1  0.80092200  0.81535700  0.65790600  1
  C  1373  1  0.79741600  0.82589900  0.67381700  1
  C  1374  1  0.78326600  0.83900400  0.67350900  1
  C  1376  1  0.81468800  0.80146600  0.65600800  1
  C  1377  1  0.82191300  0.79499900  0.63922700  1
  C  1378  1  0.83513000  0.78099700  0.63946000  1
  C  1379  1  0.84171900  0.77320800  0.65578000  1
  C  1380  1  0.83396000  0.78008900  0.67192100  1
  C  1385  1  0.81743200  0.80262300  0.62254900  1
  C  1386  1  0.80794900  0.82462400  0.68928900  1
  C  1393  1  0.21144600  0.84197000  0.39576300  1
  C  1394  1  0.20757700  0.83108400  0.41101100  1
  C  1396  1  0.18309500  0.81535900  0.39571800  1
  C  1397  1  0.18660100  0.82590000  0.37980500  1
  C  1398  1  0.20075300  0.83900500  0.38011400  1
  C  1400  1  0.16932900  0.80146700  0.39761600  1
  C  1401  1  0.16210500  0.79499900  0.41439600  1
  C  1402  1  0.14888900  0.78099700  0.41416400  1
  C  1403  1  0.14229700  0.77321100  0.39784400  1
  C  1404  1  0.15005600  0.78009200  0.38170300  1
  C  1409  1  0.16658900  0.80261800  0.43107500  1
  C  1410  1  0.17606800  0.82462500  0.36433400  1
  C  1417  1  0.77258600  0.14204500  0.39576600  1
  C  1418  1  0.77645500  0.15293300  0.41101300  1
  C  1420  1  0.80093600  0.16865800  0.39572200  1
  C  1421  1  0.79743300  0.15811600  0.37981100  1
  C  1422  1  0.78328100  0.14501000  0.38011800  1
  C  1424  1  0.81470200  0.18255100  0.39762200  1
  C  1425  1  0.82192500  0.18902000  0.41440200  1
  C  1426  1  0.83514200  0.20302100  0.41417000  1
  C  1427  1  0.84173100  0.21080900  0.39785000  1
  C  1428  1  0.83397600  0.20392500  0.38170700  1
  C  1433  1  0.81744100  0.18139900  0.43108000  1
  C  1434  1  0.80796600  0.15939000  0.36433900  1
  C  1441  1  0.14205100  0.36096000  0.80738300  1
  C  1442  1  0.15293700  0.37620800  0.81125500  1
  C  1444  1  0.16866100  0.36091700  0.83573700  1
  C  1445  1  0.15812000  0.34500400  0.83223100  1
  C  1446  1  0.14501700  0.34531100  0.81807800  1
  C  1448  1  0.18255100  0.36281500  0.84950400  1
  C  1449  1  0.18901700  0.37959600  0.85673100  1
  C  1450  1  0.20301800  0.37936400  0.86994700  1
  C  1451  1  0.21080800  0.36304400  0.87653700  1
  C  1452  1  0.20392500  0.34690200  0.86878000  1
  C  1457  1  0.18139600  0.39627400  0.85224700  1
  C  1458  1  0.15939600  0.32953200  0.84276300  1
  C  1465  1  0.84197300  0.36095800  0.24625000  1
  C  1466  1  0.83108700  0.37620500  0.24238100  1
  C  1468  1  0.81536100  0.36091400  0.21790000  1
  C  1469  1  0.82590100  0.34500100  0.22140500  1
  C  1470  1  0.83900700  0.34531000  0.23555500  1
  C  1472  1  0.80146900  0.36281300  0.20413300  1
  C  1473  1  0.79500400  0.37959400  0.19690800  1
  C  1474  1  0.78100100  0.37936300  0.18369300  1
  C  1475  1  0.77321100  0.36304300  0.17710300  1
  C  1476  1  0.78009200  0.34690200  0.18486300  1
  C  1481  1  0.80262800  0.39627200  0.20138900  1
  C  1482  1  0.82462700  0.32953000  0.21087200  1
  C  1489  1  0.84196800  0.62305500  0.80737400  1
  C  1490  1  0.83108000  0.60780800  0.81124500  1
  C  1492  1  0.81535600  0.62310100  0.83572600  1
  C  1493  1  0.82589700  0.63901300  0.83222100  1
  C  1494  1  0.83900300  0.63870500  0.81806800  1
  C  1496  1  0.80146300  0.62120500  0.84949200  1
  C  1497  1  0.79499300  0.60442500  0.85671600  1
  C  1498  1  0.78099300  0.60465800  0.86993200  1
  C  1499  1  0.77320800  0.62098000  0.87652600  1
  C  1500  1  0.78009000  0.63712100  0.86876500  1
  C  1505  1  0.80261300  0.58774600  0.85223200  1
  C  1506  1  0.82462400  0.65448500  0.84275200  1
  C  1513  1  0.14206200  0.62305700  0.24624600  1
  C  1514  1  0.15294900  0.60780900  0.24237800  1
  C  1516  1  0.16867300  0.62309900  0.21789500  1
  C  1517  1  0.15813100  0.63901000  0.22139600  1
  C  1518  1  0.14502500  0.63870300  0.23554900  1
  C  1520  1  0.18256600  0.62120100  0.20412900  1
  C  1521  1  0.18903500  0.60442100  0.19690500  1
  C  1522  1  0.20303600  0.60465300  0.18369000  1
  C  1523  1  0.21082500  0.62097400  0.17710100  1
  C  1524  1  0.20394200  0.63711500  0.18485600  1
  C  1529  1  0.18141300  0.58774200  0.20138800  1
  C  1530  1  0.15940300  0.65448100  0.21086200  1
  C  1537  1  0.36095800  0.21144600  0.87677300  1
  C  1538  1  0.37620700  0.20757600  0.86588700  1
  C  1540  1  0.36091600  0.18309400  0.85016200  1
  C  1541  1  0.34500300  0.18659900  0.86070100  1
  C  1542  1  0.34531000  0.20075100  0.87380500  1
  C  1544  1  0.36281500  0.16932600  0.83627000  1
  C  1545  1  0.37959500  0.16210100  0.82980600  1
  C  1546  1  0.37936400  0.14888500  0.81580400  1
  C  1547  1  0.36304400  0.14229700  0.80801300  1
  C  1548  1  0.34690300  0.15005300  0.81489500  1
  C  1553  1  0.39627200  0.16658300  0.83742900  1
  C  1554  1  0.32953100  0.17606600  0.85942700  1
  C  1561  1  0.36095900  0.77257900  0.17685100  1
  C  1562  1  0.37620700  0.77645000  0.18773700  1
  C  1564  1  0.36091600  0.80093100  0.20346100  1
  C  1565  1  0.34500300  0.79742600  0.19292000  1
  C  1566  1  0.34531100  0.78327400  0.17981600  1
  C  1568  1  0.36281300  0.81469800  0.21735200  1
  C  1569  1  0.37959500  0.82192200  0.22382000  1
  C  1570  1  0.37936300  0.83513900  0.23782000  1
  C  1571  1  0.36304300  0.84173000  0.24560900  1
  C  1572  1  0.34690200  0.83397200  0.23872800  1
  C  1577  1  0.39627200  0.81744000  0.21619700  1
  C  1578  1  0.32953100  0.80795900  0.19419500  1
  C  1585  1  0.62305800  0.21144900  0.17687000  1
  C  1586  1  0.60781000  0.20758000  0.18775700  1
  C  1588  1  0.62310300  0.18309500  0.20348000  1
  C  1589  1  0.63901300  0.18659900  0.19293600  1
  C  1590  1  0.63870500  0.20075300  0.17983200  1
  C  1592  1  0.62120500  0.16932900  0.21737100  1
  C  1593  1  0.60442500  0.16210500  0.22384000  1
  C  1594  1  0.60466000  0.14888900  0.23784100  1
  C  1595  1  0.62098000  0.14229500  0.24562600  1
  C  1596  1  0.63712100  0.15005500  0.23874300  1
  C  1601  1  0.58774600  0.16659100  0.21622200  1
  C  1602  1  0.65448500  0.17606500  0.19420800  1
  C  1609  1  0.62305400  0.77257800  0.87677600  1
  C  1610  1  0.60780600  0.77644700  0.86588800  1
  C  1612  1  0.62309700  0.80092700  0.85016200  1
  C  1613  1  0.63901000  0.79742300  0.86070300  1
  C  1614  1  0.63870200  0.78327200  0.87380900  1
  C  1616  1  0.62120100  0.81469200  0.83626700  1
  C  1617  1  0.60442100  0.82191600  0.82979900  1
  C  1618  1  0.60465300  0.83513100  0.81579700  1
  C  1619  1  0.62097300  0.84172000  0.80800800  1
  C  1620  1  0.63711500  0.83396400  0.81489200  1
  C  1625  1  0.58774200  0.81743400  0.83742100  1
  C  1626  1  0.65448200  0.80795600  0.85942800  1
  C  1633  1  0.64908600  0.71679300  0.90180300  1
  C  1634  1  0.66400200  0.71684900  0.91373800  1
  C  1636  1  0.67589100  0.68893400  0.90121000  1
  C  1637  1  0.66123400  0.68854200  0.88851300  1
  C  1638  1  0.64795400  0.70249200  0.88911600  1
  C  1640  1  0.69003400  0.67546400  0.90263100  1
  C  1641  1  0.69931800  0.67074600  0.91897100  1
  C  1642  1  0.71269500  0.65691000  0.91845400  1
  C  1643  1  0.71693900  0.64748000  0.90227900  1
  C  1644  1  0.70778800  0.65310400  0.88642800  1
  C  1649  1  0.69466000  0.67803300  0.93574600  1
  C  1650  1  0.65873200  0.67439300  0.87644600  1
  C  1657  1  0.33493400  0.26723900  0.90179500  1
  C  1658  1  0.32002600  0.26718700  0.91374100  1
  C  1660  1  0.30812600  0.29509600  0.90120400  1
  C  1661  1  0.32277300  0.29548000  0.88849500  1
  C  1662  1  0.33605500  0.28152900  0.88909700  1
  C  1664  1  0.29398300  0.30856800  0.90263000  1
  C  1665  1  0.28468800  0.31327200  0.91896700  1
  C  1666  1  0.27131100  0.32710900  0.91845300  1
  C  1667  1  0.26708100  0.33655600  0.90228300  1
  C  1668  1  0.27624300  0.33094400  0.88643300  1
  C  1673  1  0.28933100  0.30597100  0.93574100  1
  C  1674  1  0.32526700  0.30961900  0.87641600  1
  C  1681  1  0.33493900  0.71678900  0.15182200  1
  C  1682  1  0.32002400  0.71684200  0.13988300  1
  C  1684  1  0.30813700  0.68892600  0.15241400  1
  C  1685  1  0.32279100  0.68853900  0.16511500  1
  C  1686  1  0.33607000  0.70249200  0.16451100  1
  C  1688  1  0.29399500  0.67545400  0.15099300  1
  C  1689  1  0.28470600  0.67074200  0.13465400  1
  C  1690  1  0.27132900  0.65690500  0.13517200  1
  C  1691  1  0.26709300  0.64746600  0.15134400  1
  C  1692  1  0.27625100  0.65308600  0.16719500  1
  C  1697  1  0.28935400  0.67803600  0.11787900  1
  C  1698  1  0.32529300  0.67439400  0.17718600  1
  C  1705  1  0.64909000  0.26723400  0.15184900  1
  C  1706  1  0.66401600  0.26717100  0.13992500  1
  C  1708  1  0.67589000  0.29510000  0.15243500  1
  C  1709  1  0.66122200  0.29550200  0.16511900  1
  C  1710  1  0.64794400  0.28155000  0.16451900  1
  C  1712  1  0.69003300  0.30857100  0.15101200  1
  C  1713  1  0.69933300  0.31326900  0.13467600  1
  C  1714  1  0.71271000  0.32710500  0.13519100  1
  C  1715  1  0.71693500  0.33655600  0.15135900  1
  C  1716  1  0.70776700  0.33095100  0.16720800  1
  C  1721  1  0.69469300  0.30596300  0.11790400  1
  C  1722  1  0.65870900  0.30966200  0.17717100  1
  C  1729  1  0.86699100  0.64908300  0.75158500  1
  C  1730  1  0.87891400  0.66400900  0.75165000  1
  C  1732  1  0.86639700  0.67588700  0.72372600  1
  C  1733  1  0.85371100  0.66122100  0.72332400  1
  C  1734  1  0.85431600  0.64794000  0.73727600  1
  C  1736  1  0.86781900  0.69003100  0.71025600  1
  C  1737  1  0.88415200  0.69933400  0.70555700  1
  C  1738  1  0.88363700  0.71271100  0.69172100  1
  C  1739  1  0.86746700  0.71693600  0.68227000  1
  C  1740  1  0.85161900  0.70776600  0.68787700  1
  C  1745  1  0.90092600  0.69469600  0.71286200  1
  C  1746  1  0.84165500  0.65871100  0.70916800  1
  C  1753  1  0.86699900  0.33493400  0.30204100  1
  C  1754  1  0.87895000  0.32003000  0.30199500  1
  C  1756  1  0.86640700  0.30812400  0.32989800  1
  C  1757  1  0.85369200  0.32276700  0.33027600  1
  C  1758  1  0.85429400  0.33604900  0.31632600  1
  C  1760  1  0.86783200  0.29398300  0.34337100  1
  C  1761  1  0.88417100  0.28469800  0.34808600  1
  C  1762  1  0.88365600  0.27132100  0.36192100  1
  C  1763  1  0.86748300  0.26708000  0.37135800  1
  C  1764  1  0.85163200  0.27623200  0.36573500  1
  C  1769  1  0.90094800  0.28935100  0.34079400  1
  C  1770  1  0.84160600  0.32525500  0.34441200  1
  C  1777  1  0.11702500  0.33493900  0.75159200  1
  C  1778  1  0.10509300  0.32002000  0.75165000  1
  C  1780  1  0.11761700  0.30813800  0.72372900  1
  C  1781  1  0.13031100  0.32279800  0.72333700  1
  C  1782  1  0.12970800  0.33607700  0.73728900  1
  C  1784  1  0.11619500  0.29399500  0.71025700  1
  C  1785  1  0.09985900  0.28469600  0.70555400  1
  C  1786  1  0.10037500  0.27132100  0.69171700  1
  C  1787  1  0.11654400  0.26709600  0.68226800  1
  C  1788  1  0.13239200  0.27626200  0.68787700  1
  C  1793  1  0.08308600  0.28933500  0.71285900  1
  C  1794  1  0.14237500  0.32530400  0.70918700  1
  C  1801  1  0.11703600  0.64909300  0.30202800  1
  C  1802  1  0.10510000  0.66400900  0.30197200  1
  C  1804  1  0.11762200  0.67589300  0.32989200  1
  C  1805  1  0.13031800  0.66123600  0.33028600  1
  C  1806  1  0.12971800  0.64795600  0.31633300  1
  C  1808  1  0.11619900  0.69003400  0.34336400  1
  C  1809  1  0.09985800  0.69931700  0.34808000  1
  C  1810  1  0.10037400  0.71269400  0.36191600  1
  C  1811  1  0.11654800  0.71693900  0.37134700  1
  C  1812  1  0.13240000  0.70778800  0.36572400  1
  C  1817  1  0.08308300  0.69465800  0.34079200  1
  C  1818  1  0.14238100  0.65873100  0.34443800  1
  C  1825  1  0.71678400  0.86699700  0.68389000  1
  C  1826  1  0.71684400  0.87892700  0.69881000  1
  C  1828  1  0.68892300  0.86640400  0.71069300  1
  C  1829  1  0.68852700  0.85371300  0.69603300  1
  C  1830  1  0.70248000  0.85431600  0.68275200  1
  C  1832  1  0.67545100  0.86782700  0.72483500  1
  C  1833  1  0.67074400  0.88416300  0.73412900  1
  C  1834  1  0.65690600  0.88364700  0.74750500  1
  C  1835  1  0.64746600  0.86747500  0.75173900  1
  C  1836  1  0.65308200  0.85162500  0.74257900  1
  C  1841  1  0.67804000  0.90093800  0.72948100  1
  C  1842  1  0.67437600  0.84165000  0.69352700  1
  C  1849  1  0.26724000  0.86699200  0.36974100  1
  C  1850  1  0.26718800  0.87893700  0.35483100  1
  C  1852  1  0.29509500  0.86640000  0.34293100  1
  C  1853  1  0.29548000  0.85369100  0.35757900  1
  C  1854  1  0.28153100  0.85429400  0.37086100  1
  C  1856  1  0.30856700  0.86782400  0.32878700  1
  C  1857  1  0.31327200  0.88416100  0.31949200  1
  C  1858  1  0.32710800  0.88364500  0.30611500  1
  C  1859  1  0.33655400  0.86747500  0.30188400  1
  C  1860  1  0.33094000  0.85162600  0.31104600  1
  C  1865  1  0.30597300  0.90093500  0.32413600  1
  C  1866  1  0.30961900  0.84161200  0.36007100  1
  C  1873  1  0.71679900  0.11701500  0.36974400  1
  C  1874  1  0.71684800  0.10507200  0.35483300  1
  C  1876  1  0.68893700  0.11760900  0.34293900  1
  C  1877  1  0.68855300  0.13031400  0.35759000  1
  C  1878  1  0.70250400  0.12971000  0.37087000  1
  C  1880  1  0.67546500  0.11618700  0.32879800  1
  C  1881  1  0.67074500  0.09984700  0.31951700  1
  C  1882  1  0.65690900  0.10036500  0.30614000  1
  C  1883  1  0.64748000  0.11654000  0.30189300  1
  C  1884  1  0.65310800  0.13239200  0.31104300  1
  C  1889  1  0.67802900  0.08307000  0.32417600  1
  C  1890  1  0.67441200  0.14239000  0.36008600  1
  C  1897  1  0.26723300  0.11704600  0.68389700  1
  C  1898  1  0.26716900  0.10512100  0.69882100  1
  C  1900  1  0.29510000  0.11763000  0.71069500  1
  C  1901  1  0.29550200  0.13031500  0.69602700  1
  C  1902  1  0.28155000  0.12971500  0.68274900  1
  C  1904  1  0.30857200  0.11620600  0.72483700  1
  C  1905  1  0.31326900  0.09987000  0.73413700  1
  C  1906  1  0.32710700  0.10038400  0.74751300  1
  C  1907  1  0.33656000  0.11655100  0.75173700  1
  C  1908  1  0.33095400  0.13240000  0.74257000  1
  C  1913  1  0.30596200  0.08309800  0.72949800  1
  C  1914  1  0.30966200  0.14236600  0.69351300  1
  C  1921  1  0.71679300  0.64908600  0.15182800  1
  C  1922  1  0.71684900  0.66400200  0.13989200  1
  C  1924  1  0.68893400  0.67589100  0.15242100  1
  C  1925  1  0.68854200  0.66123400  0.16511800  1
  C  1926  1  0.70249200  0.64795400  0.16451500  1
  C  1928  1  0.67546400  0.69003400  0.15100000  1
  C  1929  1  0.67074600  0.69931800  0.13466000  1
  C  1930  1  0.65691000  0.71269500  0.13517700  1
  C  1931  1  0.64748000  0.71693900  0.15135300  1
  C  1932  1  0.65310400  0.70778800  0.16720400  1
  C  1937  1  0.67803300  0.69466000  0.11788400  1
  C  1938  1  0.67439300  0.65873200  0.17718500  1
  C  1945  1  0.26723900  0.33493400  0.15183600  1
  C  1946  1  0.26718700  0.32002600  0.13989100  1
  C  1948  1  0.29509600  0.30812600  0.15242600  1
  C  1949  1  0.29548000  0.32277300  0.16513500  1
  C  1950  1  0.28152900  0.33605500  0.16453400  1
  C  1952  1  0.30856800  0.29398300  0.15100100  1
  C  1953  1  0.31327200  0.28468800  0.13466400  1
  C  1954  1  0.32710900  0.27131100  0.13517900  1
  C  1955  1  0.33655600  0.26708100  0.15134700  1
  C  1956  1  0.33094400  0.27624300  0.16719800  1
  C  1961  1  0.30597100  0.28933100  0.11789100  1
  C  1962  1  0.30961900  0.32526700  0.17721500  1
  C  1969  1  0.71678900  0.33493900  0.90181000  1
  C  1970  1  0.71684200  0.32002400  0.91374800  1
  C  1972  1  0.68892600  0.30813700  0.90121600  1
  C  1973  1  0.68853900  0.32279100  0.88851700  1
  C  1974  1  0.70249200  0.33607000  0.88912000  1
  C  1976  1  0.67545400  0.29399500  0.90263900  1
  C  1977  1  0.67074200  0.28470600  0.91897700  1
  C  1978  1  0.65690500  0.27132900  0.91846000  1
  C  1979  1  0.64746600  0.26709300  0.90228800  1
  C  1980  1  0.65308600  0.27625100  0.88643700  1
  C  1985  1  0.67803600  0.28935400  0.93575200  1
  C  1986  1  0.67439400  0.32529300  0.87644600  1
  C  1993  1  0.26723400  0.64909000  0.90178300  1
  C  1994  1  0.26717100  0.66401600  0.91370700  1
  C  1996  1  0.29510000  0.67589000  0.90119600  1
  C  1997  1  0.29550200  0.66122200  0.88851100  1
  C  1998  1  0.28155000  0.64794400  0.88911300  1
  C  2000  1  0.30857100  0.69003300  0.90261900  1
  C  2001  1  0.31326900  0.69933300  0.91895500  1
  C  2002  1  0.32710500  0.71271000  0.91843900  1
  C  2003  1  0.33655600  0.71693500  0.90227300  1
  C  2004  1  0.33095100  0.70776700  0.88642400  1
  C  2009  1  0.30596300  0.69469300  0.93572700  1
  C  2010  1  0.30966200  0.65870900  0.87646100  1
  C  2017  1  0.64908300  0.86699100  0.30204500  1
  C  2018  1  0.66400900  0.87891400  0.30198000  1
  C  2020  1  0.67588700  0.86639700  0.32990600  1
  C  2021  1  0.66122100  0.85371100  0.33030600  1
  C  2022  1  0.64794000  0.85431600  0.31635500  1
  C  2024  1  0.69003100  0.86781900  0.34337500  1
  C  2025  1  0.69933400  0.88415200  0.34807300  1
  C  2026  1  0.71271100  0.88363700  0.36191100  1
  C  2027  1  0.71693600  0.86746700  0.37136000  1
  C  2028  1  0.70776600  0.85161900  0.36575400  1
  C  2033  1  0.69469600  0.90092600  0.34076900  1
  C  2034  1  0.65871100  0.84165500  0.34446200  1
  C  2041  1  0.33493400  0.86699900  0.75159100  1
  C  2042  1  0.32003000  0.87895000  0.75163500  1
  C  2044  1  0.30812400  0.86640700  0.72373300  1
  C  2045  1  0.32276700  0.85369200  0.72335400  1
  C  2046  1  0.33604900  0.85429400  0.73730400  1
  C  2048  1  0.29398300  0.86783200  0.71026100  1
  C  2049  1  0.28469800  0.88417100  0.70554600  1
  C  2050  1  0.27132100  0.88365600  0.69170900  1
  C  2051  1  0.26708000  0.86748300  0.68227300  1
  C  2052  1  0.27623200  0.85163200  0.68789600  1
  C  2057  1  0.28935100  0.90094800  0.71283600  1
  C  2058  1  0.32525500  0.84160600  0.70922000  1
  C  2065  1  0.33493900  0.11702500  0.30203900  1
  C  2066  1  0.32002000  0.10509300  0.30198200  1
  C  2068  1  0.30813800  0.11761700  0.32990300  1
  C  2069  1  0.32279800  0.13031100  0.33029500  1
  C  2070  1  0.33607700  0.12970800  0.31634300  1
  C  2072  1  0.29399500  0.11619500  0.34337500  1
  C  2073  1  0.28469600  0.09985900  0.34807600  1
  C  2074  1  0.27132100  0.10037500  0.36191300  1
  C  2075  1  0.26709600  0.11654400  0.37136300  1
  C  2076  1  0.27626200  0.13239200  0.36575400  1
  C  2081  1  0.28933500  0.08308600  0.34077100  1
  C  2082  1  0.32530400  0.14237500  0.34444500  1
  C  2089  1  0.64909300  0.11703600  0.75160300  1
  C  2090  1  0.66400900  0.10510000  0.75166000  1
  C  2092  1  0.67589300  0.11762200  0.72374000  1
  C  2093  1  0.66123600  0.13031800  0.72334500  1
  C  2094  1  0.64795600  0.12971800  0.73729700  1
  C  2096  1  0.69003400  0.11619900  0.71026800  1
  C  2097  1  0.69931700  0.09985800  0.70555200  1
  C  2098  1  0.71269400  0.10037400  0.69171600  1
  C  2099  1  0.71693900  0.11654800  0.68228400  1
  C  2100  1  0.70778800  0.13240000  0.68790800  1
  C  2105  1  0.69465800  0.08308300  0.71284000  1
  C  2106  1  0.65873100  0.14238100  0.70919300  1
  C  2113  1  0.86699700  0.71678400  0.36974200  1
  C  2114  1  0.87892700  0.71684400  0.35482000  1
  C  2116  1  0.86640400  0.68892300  0.34293800  1
  C  2117  1  0.85371300  0.68852700  0.35759900  1
  C  2118  1  0.85431600  0.70248000  0.37088000  1
  C  2120  1  0.86782700  0.67545100  0.32879500  1
  C  2121  1  0.88416300  0.67074400  0.31950300  1
  C  2122  1  0.88364700  0.65690600  0.30612600  1
  C  2123  1  0.86747500  0.64746600  0.30189200  1
  C  2124  1  0.85162500  0.65308200  0.31105300  1
  C  2129  1  0.90093800  0.67804000  0.32415000  1
  C  2130  1  0.84165000  0.67437600  0.36010500  1
  C  2137  1  0.86699200  0.26724000  0.68389100  1
  C  2138  1  0.87893700  0.26718800  0.69879900  1
  C  2140  1  0.86640000  0.29509500  0.71070100  1
  C  2141  1  0.85369100  0.29548000  0.69605300  1
  C  2142  1  0.85429400  0.28153100  0.68277000  1
  C  2144  1  0.86782400  0.30856700  0.72484500  1
  C  2145  1  0.88416100  0.31327200  0.73414000  1
  C  2146  1  0.88364500  0.32710800  0.74751700  1
  C  2147  1  0.86747500  0.33655400  0.75174800  1
  C  2148  1  0.85162600  0.33094000  0.74258600  1
  C  2153  1  0.90093500  0.30597300  0.72949600  1
  C  2154  1  0.84161200  0.30961900  0.69355900  1
  C  2161  1  0.11701500  0.71679900  0.68388800  1
  C  2162  1  0.10507200  0.71684800  0.69879900  1
  C  2164  1  0.11760900  0.68893700  0.71069300  1
  C  2165  1  0.13031400  0.68855300  0.69604100  1
  C  2166  1  0.12971000  0.70250400  0.68276200  1
  C  2168  1  0.11618700  0.67546500  0.72483400  1
  C  2169  1  0.09984700  0.67074500  0.73411500  1
  C  2170  1  0.10036500  0.65690900  0.74749200  1
  C  2171  1  0.11654000  0.64748000  0.75173700  1
  C  2172  1  0.13239200  0.65310800  0.74258800  1
  C  2177  1  0.08307000  0.67802900  0.72945600  1
  C  2178  1  0.14239000  0.67441200  0.69354400  1
  C  2185  1  0.11704600  0.26723300  0.36973500  1
  C  2186  1  0.10512100  0.26716900  0.35480900  1
  C  2188  1  0.11763000  0.29510000  0.34293700  1
  C  2189  1  0.13031500  0.29550200  0.35760300  1
  C  2190  1  0.12971500  0.28155000  0.37088200  1
  C  2192  1  0.11620600  0.30857200  0.32879500  1
  C  2193  1  0.09987000  0.31326900  0.31949400  1
  C  2194  1  0.10038400  0.32710700  0.30611800  1
  C  2195  1  0.11655100  0.33656000  0.30189300  1
  C  2196  1  0.13240000  0.33095400  0.31106100  1
  C  2201  1  0.08309800  0.30596200  0.32413400  1
  C  2202  1  0.14236600  0.30966200  0.36011700  1
  C  2209  1  0.23783200  0.03958800  0.43403800  1
  C  2210  1  0.24743000  0.02691700  0.44484100  1
  C  2212  1  0.23536500  0.00154900  0.42861200  1
  C  2213  1  0.22603200  0.01336500  0.41657700  1
  C  2214  1  0.22737400  0.03233000  0.41960200  1
  C  2216  1  0.23301700  0.98248700  0.42925700  1
  C  2217  1  0.22115800  0.97396500  0.44185100  1
  C  2218  1  0.22157000  0.95484700  0.44320800  1
  C  2219  1  0.23359800  0.94422100  0.43262500  1
  C  2220  1  0.24465800  0.95355200  0.42001900  1
  C  2225  1  0.20979100  0.98345400  0.45353200  1
  C  2226  1  0.21527800  0.00715400  0.40251500  1
  C  2233  1  0.74618800  0.94442400  0.43402700  1
  C  2234  1  0.73658600  0.95709700  0.44482500  1
  C  2236  1  0.74866100  0.98246300  0.42860000  1
  C  2237  1  0.75800500  0.97064400  0.41657300  1
  C  2238  1  0.75666000  0.95168100  0.41960000  1
  C  2240  1  0.75101500  0.00152400  0.42924800  1
  C  2241  1  0.76288800  0.01004100  0.44183100  1
  C  2242  1  0.76248200  0.02915900  0.44318900  1
  C  2243  1  0.75044900  0.03978800  0.43261700  1
  C  2244  1  0.73937300  0.03046400  0.42002300  1
  C  2249  1  0.77426100  0.00054800  0.45350000  1
  C  2250  1  0.76876900  0.97685300  0.40251800  1
  C  2257  1  0.74617800  0.03959700  0.61960700  1
  C  2258  1  0.73657000  0.02692600  0.60881500  1
  C  2260  1  0.74864300  0.00155900  0.62503900  1
  C  2261  1  0.75798700  0.01337700  0.63706600  1
  C  2262  1  0.75664500  0.03234100  0.63403900  1
  C  2264  1  0.75099600  0.98249800  0.62439100  1
  C  2265  1  0.76287600  0.97398200  0.61181200  1
  C  2266  1  0.76247300  0.95486300  0.61045500  1
  C  2267  1  0.75044200  0.94423100  0.62102700  1
  C  2268  1  0.73935400  0.95355700  0.63361000  1
  C  2273  1  0.77425000  0.98347500  0.60014600  1
  C  2274  1  0.76875100  0.00716700  0.65112100  1
  C  2281  1  0.23783100  0.94444000  0.61960900  1
  C  2282  1  0.24743500  0.95711100  0.60880900  1
  C  2284  1  0.23537100  0.98247900  0.62503600  1
  C  2285  1  0.22603000  0.97066300  0.63706800  1
  C  2286  1  0.22736800  0.95170000  0.63404200  1
  C  2288  1  0.23302000  0.00154100  0.62439000  1
  C  2289  1  0.22114800  0.01006200  0.61180800  1
  C  2290  1  0.22155500  0.02918100  0.61045500  1
  C  2291  1  0.23357600  0.03981300  0.62103900  1
  C  2292  1  0.24466300  0.03047800  0.63361800  1
  C  2297  1  0.20977900  0.00057200  0.60013200  1
  C  2298  1  0.21527000  0.97687600  0.65112600  1
  C  2305  1  0.39923300  0.23782400  0.07439100  1
  C  2306  1  0.41003600  0.24742300  0.06172000  1
  C  2308  1  0.39380700  0.23536000  0.03635200  1
  C  2309  1  0.38177100  0.22602600  0.04816800  1
  C  2310  1  0.38479700  0.22736600  0.06713200  1
  C  2312  1  0.39445200  0.23301100  0.01728900  1
  C  2313  1  0.40704700  0.22115300  0.00876700  1
  C  2314  1  0.40840300  0.22156900  0.98964800  1
  C  2315  1  0.39781800  0.23359500  0.97902400  1
  C  2316  1  0.38521400  0.24465500  0.98835400  1
  C  2321  1  0.41872800  0.20978800  0.01825500  1
  C  2322  1  0.36771000  0.21527300  0.04195600  1
  C  2329  1  0.39922200  0.74618600  0.97923000  1
  C  2330  1  0.41002000  0.73658500  0.99190300  1
  C  2332  1  0.39379500  0.74866000  0.01726900  1
  C  2333  1  0.38176700  0.75800400  0.00545100  1
  C  2334  1  0.38479400  0.75665800  0.98648600  1
  C  2336  1  0.39444200  0.75101200  0.03633000  1
  C  2337  1  0.40702400  0.76288700  0.04484700  1
  C  2338  1  0.40838300  0.76247900  0.06396600  1
  C  2339  1  0.39781200  0.75044500  0.07459500  1
  C  2340  1  0.38521800  0.73936800  0.06527000  1
  C  2345  1  0.41869300  0.77426100  0.03535500  1
  C  2346  1  0.36771400  0.76876900  0.01166100  1
  C  2353  1  0.58480200  0.74618000  0.07440400  1
  C  2354  1  0.57400800  0.73657100  0.06173200  1
  C  2356  1  0.59023300  0.74864500  0.03636600  1
  C  2357  1  0.60226100  0.75798900  0.04818300  1
  C  2358  1  0.59923400  0.75664600  0.06714700  1
  C  2360  1  0.58958600  0.75099900  0.01730500  1
  C  2361  1  0.57700700  0.76287800  0.00878900  1
  C  2362  1  0.57564800  0.76247500  0.98967000  1
  C  2363  1  0.58622200  0.75044600  0.97903600  1
  C  2364  1  0.59880500  0.73935800  0.98836400  1
  C  2369  1  0.56533900  0.77425200  0.01828300  1
  C  2370  1  0.61631500  0.76875200  0.04197400  1
  C  2377  1  0.58480300  0.23783700  0.97924400  1
  C  2378  1  0.57400400  0.24744200  0.99191400  1
  C  2380  1  0.59023000  0.23537500  0.01728200  1
  C  2381  1  0.60226200  0.22603500  0.00546600  1
  C  2382  1  0.59923600  0.22737500  0.98650100  1
  C  2384  1  0.58958400  0.23302400  0.03634400  1
  C  2385  1  0.57700400  0.22115100  0.04486400  1
  C  2386  1  0.57565100  0.22155800  0.06398300  1
  C  2387  1  0.58623400  0.23357900  0.07461500  1
  C  2388  1  0.59881300  0.24466700  0.06528100  1
  C  2393  1  0.56532900  0.20978000  0.03537400  1
  C  2394  1  0.61632100  0.21527500  0.01167800  1
  C  2401  1  0.03959100  0.39923300  0.27263100  1
  C  2402  1  0.02692000  0.41003600  0.28223000  1
  C  2404  1  0.00155200  0.39380700  0.27016500  1
  C  2405  1  0.01336800  0.38177100  0.26083200  1
  C  2406  1  0.03233200  0.38479600  0.26217200  1
  C  2408  1  0.98249000  0.39445300  0.26781700  1
  C  2409  1  0.97396900  0.40704800  0.25595900  1
  C  2410  1  0.95484900  0.40840600  0.25637300  1
  C  2411  1  0.94422500  0.39782100  0.26839900  1
  C  2412  1  0.95355400  0.38521400  0.27945800  1
  C  2417  1  0.98345600  0.41873000  0.24459500  1
  C  2418  1  0.00715600  0.36771000  0.25007800  1
  C  2425  1  0.94443000  0.39922200  0.78099300  1
  C  2426  1  0.95710400  0.41002000  0.77139100  1
  C  2428  1  0.98246900  0.39379500  0.78346400  1
  C  2429  1  0.97065100  0.38176700  0.79280900  1
  C  2430  1  0.95168800  0.38479400  0.79146500  1
  C  2432  1  0.00153000  0.39444100  0.78581600  1
  C  2433  1  0.01004900  0.40702200  0.79769200  1
  C  2434  1  0.02916800  0.40838100  0.79728500  1
  C  2435  1  0.03979500  0.39781000  0.78524900  1
  C  2436  1  0.03047000  0.38521800  0.77417200  1
  C  2441  1  0.00055700  0.41869000  0.80906700  1
  C  2442  1  0.97686200  0.36771400  0.80357400  1
  C  2449  1  0.03959400  0.58480000  0.78097800  1
  C  2450  1  0.02692200  0.57400800  0.77137000  1
  C  2452  1  0.00155600  0.59023300  0.78344300  1
  C  2453  1  0.01337400  0.60226100  0.79278700  1
  C  2454  1  0.03233800  0.59923200  0.79144500  1
  C  2456  1  0.98249500  0.58958700  0.78579600  1
  C  2457  1  0.97397800  0.57701000  0.79767700  1
  C  2458  1  0.95486000  0.57565200  0.79727400  1
  C  2459  1  0.94422700  0.58622300  0.78524400  1
  C  2460  1  0.95355400  0.59880500  0.77415300  1
  C  2465  1  0.98347300  0.56534400  0.80905400  1
  C  2466  1  0.00716500  0.61631500  0.80355100  1
  C  2473  1  0.94443300  0.58480400  0.27263600  1
  C  2474  1  0.95710400  0.57400400  0.28223900  1
  C  2476  1  0.98247200  0.59023000  0.27017400  1
  C  2477  1  0.97065600  0.60226400  0.26083400  1
  C  2478  1  0.95169200  0.59923800  0.26217400  1
  C  2480  1  0.00153400  0.58958400  0.26782200  1
  C  2481  1  0.01005300  0.57700000  0.25595100  1
  C  2482  1  0.02917200  0.57564700  0.25635700  1
  C  2483  1  0.03980500  0.58623300  0.26837600  1
  C  2484  1  0.03047200  0.59881300  0.27946200  1
  C  2489  1  0.00056200  0.56532400  0.24458300  1
  C  2490  1  0.97686800  0.61632100  0.25007500  1
  C  2497  1  0.03958800  0.23783200  0.61959200  1
  C  2498  1  0.02691700  0.24743000  0.60878900  1
  C  2500  1  0.00154900  0.23536500  0.62501800  1
  C  2501  1  0.01336500  0.22603200  0.63705500  1
  C  2502  1  0.03233000  0.22737400  0.63402900  1
  C  2504  1  0.98248700  0.23301700  0.62437300  1
  C  2505  1  0.97396500  0.22115800  0.61178000  1
  C  2506  1  0.95484700  0.22157000  0.61042200  1
  C  2507  1  0.94422100  0.23359800  0.62100700  1
  C  2508  1  0.95355200  0.24465800  0.63361100  1
  C  2513  1  0.98345400  0.20979100  0.60010000  1
  C  2514  1  0.00715400  0.21527800  0.65111500  1
  C  2521  1  0.94442400  0.74618800  0.61960400  1
  C  2522  1  0.95709700  0.73658600  0.60880700  1
  C  2524  1  0.98246300  0.74866100  0.62503000  1
  C  2525  1  0.97064400  0.75800500  0.63705800  1
  C  2526  1  0.95168100  0.75666000  0.63403200  1
  C  2528  1  0.00152400  0.75101500  0.62438400  1
  C  2529  1  0.01004100  0.76288800  0.61180100  1
  C  2530  1  0.02915900  0.76248200  0.61044100  1
  C  2531  1  0.03978800  0.75044900  0.62101400  1
  C  2532  1  0.03046400  0.73937300  0.63360900  1
  C  2537  1  0.00054800  0.77426100  0.60013200  1
  C  2538  1  0.97685300  0.76876900  0.65111200  1
  C  2545  1  0.03959700  0.74617800  0.43402300  1
  C  2546  1  0.02692600  0.73657000  0.44481700  1
  C  2548  1  0.00155900  0.74864300  0.42859200  1
  C  2549  1  0.01337700  0.75798700  0.41656600  1
  C  2550  1  0.03234100  0.75664500  0.41959300  1
  C  2552  1  0.98249800  0.75099600  0.42924100  1
  C  2553  1  0.97398200  0.76287600  0.44181800  1
  C  2554  1  0.95486300  0.76247300  0.44317600  1
  C  2555  1  0.94423100  0.75044200  0.43260500  1
  C  2556  1  0.95355700  0.73935400  0.42002200  1
  C  2561  1  0.98347500  0.77425000  0.45348500  1
  C  2562  1  0.00716700  0.76875100  0.40251100  1
  C  2569  1  0.94444000  0.23783100  0.43402300  1
  C  2570  1  0.95711100  0.24743500  0.44482100  1
  C  2572  1  0.98247900  0.23537100  0.42859500  1
  C  2573  1  0.97066300  0.22603000  0.41656300  1
  C  2574  1  0.95170000  0.22736800  0.41958900  1
  C  2576  1  0.00154100  0.23302000  0.42924100  1
  C  2577  1  0.01006200  0.22114800  0.44182200  1
  C  2578  1  0.02918100  0.22155500  0.44317600  1
  C  2579  1  0.03981300  0.23357600  0.43259100  1
  C  2580  1  0.03047800  0.24466300  0.42001200  1
  C  2585  1  0.00057200  0.20977900  0.45349800  1
  C  2586  1  0.97687600  0.21527000  0.40250600  1
  C  2593  1  0.23782400  0.39923300  0.97924000  1
  C  2594  1  0.24742300  0.41003600  0.99191100  1
  C  2596  1  0.23536000  0.39380700  0.01728000  1
  C  2597  1  0.22602600  0.38177100  0.00546400  1
  C  2598  1  0.22736600  0.38479700  0.98650000  1
  C  2600  1  0.23301100  0.39445200  0.03634200  1
  C  2601  1  0.22115300  0.40704700  0.04486400  1
  C  2602  1  0.22156900  0.40840300  0.06398300  1
  C  2603  1  0.23359500  0.39781800  0.07460700  1
  C  2604  1  0.24465500  0.38521400  0.06527700  1
  C  2609  1  0.20978800  0.41872800  0.03537700  1
  C  2610  1  0.21527300  0.36771000  0.01167600  1
  C  2617  1  0.74618600  0.39922200  0.07440100  1
  C  2618  1  0.73658500  0.41002000  0.06172800  1
  C  2620  1  0.74865800  0.39379500  0.03636300  1
  C  2621  1  0.75800400  0.38176700  0.04818100  1
  C  2622  1  0.75665800  0.38479400  0.06714400  1
  C  2624  1  0.75101200  0.39444200  0.01730100  1
  C  2625  1  0.76288700  0.40702400  0.00878400  1
  C  2626  1  0.76247900  0.40838300  0.98966600  1
  C  2627  1  0.75044500  0.39781200  0.97903600  1
  C  2628  1  0.73936800  0.38521800  0.98836100  1
  C  2633  1  0.77426100  0.41869300  0.01827700  1
  C  2634  1  0.76876900  0.36771400  0.04197100  1
  C  2641  1  0.74618000  0.58480200  0.97922800  1
  C  2642  1  0.73657100  0.57400800  0.99189900  1
  C  2644  1  0.74864500  0.59023300  0.01726500  1
  C  2645  1  0.75798900  0.60226100  0.00544800  1
  C  2646  1  0.75664600  0.59923400  0.98648400  1
  C  2648  1  0.75099900  0.58958600  0.03632700  1
  C  2649  1  0.76287800  0.57700700  0.04484200  1
  C  2650  1  0.76247500  0.57564800  0.06396100  1
  C  2651  1  0.75044600  0.58622200  0.07459400  1
  C  2652  1  0.73935800  0.59880500  0.06526800  1
  C  2657  1  0.77425200  0.56533900  0.03534800  1
  C  2658  1  0.76875200  0.61631500  0.01165800  1
  C  2665  1  0.23783700  0.58480300  0.07438800  1
  C  2666  1  0.24744200  0.57400400  0.06171700  1
  C  2668  1  0.23537500  0.59023000  0.03635000  1
  C  2669  1  0.22603500  0.60226200  0.04816500  1
  C  2670  1  0.22737500  0.59923600  0.06713000  1
  C  2672  1  0.23302400  0.58958400  0.01728800  1
  C  2673  1  0.22115100  0.57700400  0.00876800  1
  C  2674  1  0.22155800  0.57565100  0.98964800  1
  C  2675  1  0.23357900  0.58623400  0.97901600  1
  C  2676  1  0.24466700  0.59881300  0.98835000  1
  C  2681  1  0.20978000  0.56532900  0.01825800  1
  C  2682  1  0.21527500  0.61632100  0.04195400  1
  C  2689  1  0.39923300  0.03959100  0.78100000  1
  C  2690  1  0.41003600  0.02692000  0.77140200  1
  C  2692  1  0.39380700  0.00155200  0.78346500  1
  C  2693  1  0.38177100  0.01336800  0.79280000  1
  C  2694  1  0.38479600  0.03233200  0.79145800  1
  C  2696  1  0.39445300  0.98249000  0.78581500  1
  C  2697  1  0.40704800  0.97396900  0.79767200  1
  C  2698  1  0.40840600  0.95484900  0.79725800  1
  C  2699  1  0.39782100  0.94422500  0.78523100  1
  C  2700  1  0.38521400  0.95355400  0.77417300  1
  C  2705  1  0.41873000  0.98345600  0.80903700  1
  C  2706  1  0.36771000  0.00715600  0.80355400  1
  C  2713  1  0.39922200  0.94443000  0.27263700  1
  C  2714  1  0.41002000  0.95710400  0.28224100  1
  C  2716  1  0.39379500  0.98246900  0.27016700  1
  C  2717  1  0.38176700  0.97065100  0.26082200  1
  C  2718  1  0.38479400  0.95168800  0.26216600  1
  C  2720  1  0.39444100  0.00153000  0.26781400  1
  C  2721  1  0.40702200  0.01004900  0.25594000  1
  C  2722  1  0.40838100  0.02916800  0.25634700  1
  C  2723  1  0.39781000  0.03979500  0.26838300  1
  C  2724  1  0.38521800  0.03047000  0.27946000  1
  C  2729  1  0.41869000  0.00055700  0.24456400  1
  C  2730  1  0.36771400  0.97686200  0.25005600  1
  C  2737  1  0.58480000  0.03959400  0.27265400  1
  C  2738  1  0.57400800  0.02692200  0.28226100  1
  C  2740  1  0.59023300  0.00155600  0.27018800  1
  C  2741  1  0.60226100  0.01337400  0.26084300  1
  C  2742  1  0.59923200  0.03233800  0.26218700  1
  C  2744  1  0.58958700  0.98249500  0.26783500  1
  C  2745  1  0.57701000  0.97397800  0.25595400  1
  C  2746  1  0.57565200  0.95486000  0.25635700  1
  C  2747  1  0.58622300  0.94422700  0.26838800  1
  C  2748  1  0.59880500  0.95355400  0.27947800  1
  C  2753  1  0.56534400  0.98347300  0.24457700  1
  C  2754  1  0.61631500  0.00716500  0.25008000  1
  C  2761  1  0.58480400  0.94443300  0.78099500  1
  C  2762  1  0.57400400  0.95710400  0.77139100  1
  C  2764  1  0.59023000  0.98247200  0.78345800  1
  C  2765  1  0.60226400  0.97065600  0.79279800  1
  C  2766  1  0.59923800  0.95169200  0.79145700  1
  C  2768  1  0.58958400  0.00153400  0.78581000  1
  C  2769  1  0.57700000  0.01005300  0.79768000  1
  C  2770  1  0.57564700  0.02917200  0.79727400  1
  C  2771  1  0.58623300  0.03980500  0.78525400  1
  C  2772  1  0.59881300  0.03047200  0.77416900  1
  C  2777  1  0.56532400  0.00056200  0.80904800  1
  C  2778  1  0.61632100  0.97686800  0.80355700  1
  C  2785  1  0.74358800  0.53872200  0.93161500  1
  C  2786  1  0.75725200  0.52644600  0.93710000  1
  C  2788  1  0.73940400  0.50064100  0.92843100  1
  C  2789  1  0.72533500  0.51224900  0.92203500  1
  C  2790  1  0.72762500  0.53125300  0.92402300  1
  C  2792  1  0.73819500  0.48138300  0.92953700  1
  C  2793  1  0.72430900  0.47199200  0.93915400  1
  C  2794  1  0.72539600  0.45284700  0.94034400  1
  C  2795  1  0.73983700  0.44310400  0.93231600  1
  C  2796  1  0.75324700  0.45318600  0.92309000  1
  C  2801  1  0.71091300  0.48104700  0.94891700  1
  C  2802  1  0.70991300  0.50551200  0.91360800  1
  C  2809  1  0.24041900  0.44530700  0.93162800  1
  C  2810  1  0.22675500  0.45758700  0.93709400  1
  C  2812  1  0.24461600  0.48338600  0.92843300  1
  C  2813  1  0.25868500  0.47177100  0.92204600  1
  C  2814  1  0.25638800  0.45276900  0.92403500  1
  C  2816  1  0.24583500  0.50264200  0.92954100  1
  C  2817  1  0.25971700  0.51202200  0.93917100  1
  C  2818  1  0.25864100  0.53116900  0.94035900  1
  C  2819  1  0.24422200  0.54092700  0.93231200  1
  C  2820  1  0.23081000  0.53085000  0.92308100  1
  C  2825  1  0.27309800  0.50296000  0.94894800  1
  C  2826  1  0.27411400  0.47850300  0.91363000  1
  C  2833  1  0.24042100  0.53871800  0.12198300  1
  C  2834  1  0.22675500  0.52643800  0.11652100  1
  C  2836  1  0.24462000  0.50064400  0.12519000  1
  C  2837  1  0.25868600  0.51226300  0.13157800  1
  C  2838  1  0.25638700  0.53126400  0.12958500  1
  C  2840  1  0.24584000  0.48138700  0.12409200  1
  C  2841  1  0.25972900  0.47200000  0.11447700  1
  C  2842  1  0.25865100  0.45285400  0.11329800  1
  C  2843  1  0.24422700  0.44309600  0.12134200  1
  C  2844  1  0.23080500  0.45318300  0.13054700  1
  C  2849  1  0.27311700  0.48105700  0.10470500  1
  C  2850  1  0.27411200  0.50553600  0.14000600  1
  C  2857  1  0.74359600  0.44530600  0.12200700  1
  C  2858  1  0.75726500  0.45758000  0.11653700  1
  C  2860  1  0.73941000  0.48338400  0.12519900  1
  C  2861  1  0.72533900  0.47177300  0.13158800  1
  C  2862  1  0.72763000  0.45277100  0.12960000  1
  C  2864  1  0.73819600  0.50264100  0.12409000  1
  C  2865  1  0.72431500  0.51202500  0.11446000  1
  C  2866  1  0.72539900  0.53117000  0.11326800  1
  C  2867  1  0.73982900  0.54092100  0.12130600  1
  C  2868  1  0.75323500  0.53084400  0.13054500  1
  C  2873  1  0.71093000  0.50296600  0.10468900  1
  C  2874  1  0.70991200  0.47850800  0.14000600  1
  C  2881  1  0.89681800  0.74359500  0.57352100  1
  C  2882  1  0.90228800  0.75726200  0.56124500  1
  C  2884  1  0.89362500  0.73940800  0.53544100  1
  C  2885  1  0.88723800  0.72533600  0.54705300  1
  C  2886  1  0.88922500  0.72762900  0.56605600  1
  C  2888  1  0.89473600  0.73819300  0.51618500  1
  C  2889  1  0.90436600  0.72431300  0.50680000  1
  C  2890  1  0.90555800  0.72539500  0.48765600  1
  C  2891  1  0.89752000  0.73982500  0.47790500  1
  C  2892  1  0.88827900  0.75323100  0.48798200  1
  C  2897  1  0.91413700  0.71092800  0.51586100  1
  C  2898  1  0.87881900  0.70990900  0.54031900  1
  C  2905  1  0.89684400  0.24041300  0.48010700  1
  C  2906  1  0.90230800  0.22674800  0.49238900  1
  C  2908  1  0.89363700  0.24461400  0.51818100  1
  C  2909  1  0.88724900  0.25867900  0.50656100  1
  C  2910  1  0.88924200  0.25638000  0.48756000  1
  C  2912  1  0.89473600  0.24583600  0.53743800  1
  C  2913  1  0.90435000  0.25972500  0.54682400  1
  C  2914  1  0.90552900  0.25864800  0.56597000  1
  C  2915  1  0.89748600  0.24422500  0.57572800  1
  C  2916  1  0.88828200  0.23080100  0.56564200  1
  C  2921  1  0.91412100  0.27311300  0.53776600  1
  C  2922  1  0.87882000  0.27410500  0.51328800  1
  C  2929  1  0.08720100  0.24042800  0.57351800  1
  C  2930  1  0.08173400  0.22676100  0.56123900  1
  C  2932  1  0.09039500  0.24462100  0.53544000  1
  C  2933  1  0.09678100  0.25869200  0.54705300  1
  C  2934  1  0.09479200  0.25639600  0.56605600  1
  C  2936  1  0.08928700  0.24583900  0.51618300  1
  C  2937  1  0.07965500  0.25972100  0.50680100  1
  C  2938  1  0.07846900  0.25864400  0.48765500  1
  C  2939  1  0.08651600  0.24422300  0.47789700  1
  C  2940  1  0.09574800  0.23081200  0.48797500  1
  C  2945  1  0.06987900  0.27310000  0.51586300  1
  C  2946  1  0.10519800  0.27412100  0.54032100  1
  C  2953  1  0.08720900  0.74358900  0.48010300  1
  C  2954  1  0.08172500  0.75725300  0.49237900  1
  C  2956  1  0.09039400  0.73940700  0.51818600  1
  C  2957  1  0.09679000  0.72533800  0.50657700  1
  C  2958  1  0.09480300  0.72762600  0.48757300  1
  C  2960  1  0.08928900  0.73819700  0.53744300  1
  C  2961  1  0.07967100  0.72431300  0.54683300  1
  C  2962  1  0.07848200  0.72540000  0.56597800  1
  C  2963  1  0.08651000  0.73984100  0.57572300  1
  C  2964  1  0.09573500  0.75325100  0.56563900  1
  C  2969  1  0.06990800  0.71091500  0.53778000  1
  C  2970  1  0.10521800  0.70991600  0.51331500  1
  C  2977  1  0.53871900  0.89683800  0.77841100  1
  C  2978  1  0.52643800  0.90230200  0.79207700  1
  C  2980  1  0.50064500  0.89363500  0.77421100  1
  C  2981  1  0.51226300  0.88724600  0.76014600  1
  C  2982  1  0.53126500  0.88923800  0.76244500  1
  C  2984  1  0.48138700  0.89473400  0.77299100  1
  C  2985  1  0.47200100  0.90435100  0.75910200  1
  C  2986  1  0.45285600  0.90553200  0.76018000  1
  C  2987  1  0.44309700  0.89748900  0.77460300  1
  C  2988  1  0.45318300  0.88828200  0.78802500  1
  C  2993  1  0.48106000  0.91412200  0.74571500  1
  C  2994  1  0.50553600  0.87881900  0.74472000  1
  C  3001  1  0.44530600  0.89682400  0.27523000  1
  C  3002  1  0.45758200  0.90229400  0.26156300  1
  C  3004  1  0.48338400  0.89362900  0.27941800  1
  C  3005  1  0.47177200  0.88724100  0.29348800  1
  C  3006  1  0.45276900  0.88923000  0.29119600  1
  C  3008  1  0.50264100  0.89473700  0.28063300  1
  C  3009  1  0.51202500  0.90436600  0.29451400  1
  C  3010  1  0.53117000  0.90555500  0.29343300  1
  C  3011  1  0.54092100  0.89751700  0.27900300  1
  C  3012  1  0.53084400  0.88827900  0.26559600  1
  C  3017  1  0.50296500  0.91413700  0.30790000  1
  C  3018  1  0.47850500  0.87882000  0.30891600  1
  C  3025  1  0.53872200  0.08720600  0.27524500  1
  C  3026  1  0.52644600  0.08172300  0.26158200  1
  C  3028  1  0.50064000  0.09039400  0.27942800  1
  C  3029  1  0.51224900  0.09678900  0.29349700  1
  C  3030  1  0.53125200  0.09480100  0.29120800  1
  C  3032  1  0.48138300  0.08929000  0.28063700  1
  C  3033  1  0.47199100  0.07967300  0.29452200  1
  C  3034  1  0.45284500  0.07848600  0.29343300  1
  C  3035  1  0.44310300  0.08651400  0.27899300  1
  C  3036  1  0.45318600  0.09573900  0.26558200  1
  C  3041  1  0.48104400  0.06990900  0.30791800  1
  C  3042  1  0.50551200  0.10521800  0.30891800  1
  C  3049  1  0.44530700  0.08720400  0.77840600  1
  C  3050  1  0.45758600  0.08173600  0.79207300  1
  C  3052  1  0.48338600  0.09039500  0.77421200  1
  C  3053  1  0.47177300  0.09678200  0.76014300  1
  C  3054  1  0.45277100  0.09479400  0.76243700  1
  C  3056  1  0.50264200  0.08928500  0.77299500  1
  C  3057  1  0.51202400  0.07965300  0.75911300  1
  C  3058  1  0.53116900  0.07846500  0.76019100  1
  C  3059  1  0.54092700  0.08651100  0.77461000  1
  C  3060  1  0.53085000  0.09574400  0.78802100  1
  C  3065  1  0.50296100  0.06987800  0.74573300  1
  C  3066  1  0.47850500  0.10519800  0.74471200  1
  C  3073  1  0.53872200  0.74358800  0.12201500  1
  C  3074  1  0.52644600  0.75725200  0.11653100  1
  C  3076  1  0.50064100  0.73940400  0.12520000  1
  C  3077  1  0.51224900  0.72533500  0.13159600  1
  C  3078  1  0.53125300  0.72762500  0.12960900  1
  C  3080  1  0.48138300  0.73819500  0.12409400  1
  C  3081  1  0.47199200  0.72430900  0.11447700  1
  C  3082  1  0.45284700  0.72539600  0.11328800  1
  C  3083  1  0.44310400  0.73983700  0.12131600  1
  C  3084  1  0.45318600  0.75324700  0.13054100  1
  C  3089  1  0.48104700  0.71091300  0.10471400  1
  C  3090  1  0.50551200  0.70991300  0.14002400  1
  C  3097  1  0.44530700  0.24041900  0.12200400  1
  C  3098  1  0.45758700  0.22675500  0.11653600  1
  C  3100  1  0.48338600  0.24461600  0.12519800  1
  C  3101  1  0.47177100  0.25868500  0.13158500  1
  C  3102  1  0.45276900  0.25638800  0.12959600  1
  C  3104  1  0.50264200  0.24583500  0.12409000  1
  C  3105  1  0.51202200  0.25971700  0.11445900  1
  C  3106  1  0.53116900  0.25864100  0.11327300  1
  C  3107  1  0.54092700  0.24422200  0.12131900  1
  C  3108  1  0.53085000  0.23081000  0.13055000  1
  C  3113  1  0.50296000  0.27309800  0.10468300  1
  C  3114  1  0.47850300  0.27411400  0.14000200  1
  C  3121  1  0.53871800  0.24042100  0.93164800  1
  C  3122  1  0.52643800  0.22675500  0.93711100  1
  C  3124  1  0.50064400  0.24462000  0.92844200  1
  C  3125  1  0.51226300  0.25868600  0.92205300  1
  C  3126  1  0.53126400  0.25638700  0.92404600  1
  C  3128  1  0.48138700  0.24584000  0.92954000  1
  C  3129  1  0.47200000  0.25972900  0.93915400  1
  C  3130  1  0.45285400  0.25865100  0.94033300  1
  C  3131  1  0.44309600  0.24422700  0.93228900  1
  C  3132  1  0.45318300  0.23080500  0.92308300  1
  C  3137  1  0.48105700  0.27311700  0.94892600  1
  C  3138  1  0.50553600  0.27411200  0.91362400  1
  C  3145  1  0.44530600  0.74359600  0.93162500  1
  C  3146  1  0.45758000  0.75726500  0.93709400  1
  C  3148  1  0.48338400  0.73941000  0.92843200  1
  C  3149  1  0.47177300  0.72533900  0.92204400  1
  C  3150  1  0.45277100  0.72763000  0.92403100  1
  C  3152  1  0.50264100  0.73819600  0.92954100  1
  C  3153  1  0.51202500  0.72431500  0.93917100  1
  C  3154  1  0.53117000  0.72539900  0.94036300  1
  C  3155  1  0.54092100  0.73982900  0.93232500  1
  C  3156  1  0.53084400  0.75323500  0.92308600  1
  C  3161  1  0.50296600  0.71093000  0.94894300  1
  C  3162  1  0.47850800  0.70991200  0.91362400  1
  C  3169  1  0.74359500  0.89681800  0.48011100  1
  C  3170  1  0.75726200  0.90228800  0.49238600  1
  C  3172  1  0.73940800  0.89362500  0.51819000  1
  C  3173  1  0.72533600  0.88723800  0.50657900  1
  C  3174  1  0.72762900  0.88922500  0.48757600  1
  C  3176  1  0.73819300  0.89473600  0.53744600  1
  C  3177  1  0.72431300  0.90436600  0.54683100  1
  C  3178  1  0.72539500  0.90555800  0.56597600  1
  C  3179  1  0.73982500  0.89752000  0.57572500  1
  C  3180  1  0.75323100  0.88827900  0.56565000  1
  C  3185  1  0.71092800  0.91413700  0.53777000  1
  C  3186  1  0.70990900  0.87881900  0.51331300  1
  C  3193  1  0.24041300  0.89684400  0.57352500  1
  C  3194  1  0.22674800  0.90230800  0.56124300  1
  C  3196  1  0.24461400  0.89363700  0.53545000  1
  C  3197  1  0.25867900  0.88724900  0.54706900  1
  C  3198  1  0.25638000  0.88924200  0.56607100  1
  C  3200  1  0.24583600  0.89473600  0.51619400  1
  C  3201  1  0.25972500  0.90435000  0.50680700  1
  C  3202  1  0.25864800  0.90552900  0.48766200  1
  C  3203  1  0.24422500  0.89748600  0.47790300  1
  C  3204  1  0.23080100  0.88828200  0.48798900  1
  C  3209  1  0.27311300  0.91412100  0.51586600  1
  C  3210  1  0.27410500  0.87882000  0.54034400  1
  C  3217  1  0.24042800  0.08720100  0.48011400  1
  C  3218  1  0.22676100  0.08173400  0.49239300  1
  C  3220  1  0.24462100  0.09039500  0.51819200  1
  C  3221  1  0.25869200  0.09678100  0.50657900  1
  C  3222  1  0.25639600  0.09479200  0.48757600  1
  C  3224  1  0.24583900  0.08928700  0.53744900  1
  C  3225  1  0.25972100  0.07965500  0.54683100  1
  C  3226  1  0.25864400  0.07846900  0.56597600  1
  C  3227  1  0.24422300  0.08651600  0.57573400  1
  C  3228  1  0.23081200  0.09574800  0.56565500  1
  C  3233  1  0.27310000  0.06987900  0.53776800  1
  C  3234  1  0.27412100  0.10519800  0.51331100  1
  C  3241  1  0.74358900  0.08720900  0.57352800  1
  C  3242  1  0.75725300  0.08172500  0.56125300  1
  C  3244  1  0.73940700  0.09039400  0.53544500  1
  C  3245  1  0.72533800  0.09679000  0.54705500  1
  C  3246  1  0.72762600  0.09480300  0.56605700  1
  C  3248  1  0.73819700  0.08928900  0.51618900  1
  C  3249  1  0.72431300  0.07967100  0.50679700  1
  C  3250  1  0.72540000  0.07848200  0.48765200  1
  C  3251  1  0.73984100  0.08651000  0.47790900  1
  C  3252  1  0.75325100  0.09573500  0.48799200  1
  C  3257  1  0.71091500  0.06990800  0.51585100  1
  C  3258  1  0.70991600  0.10521800  0.54031700  1
  C  3265  1  0.89683800  0.53871900  0.27521900  1
  C  3266  1  0.90230200  0.52643800  0.26155300  1
  C  3268  1  0.89363500  0.50064500  0.27942000  1
  C  3269  1  0.88724600  0.51226300  0.29348500  1
  C  3270  1  0.88923800  0.53126500  0.29118700  1
  C  3272  1  0.89473400  0.48138700  0.28064000  1
  C  3273  1  0.90435100  0.47200100  0.29452900  1
  C  3274  1  0.90553200  0.45285600  0.29345100  1
  C  3275  1  0.89748900  0.44309700  0.27902900  1
  C  3276  1  0.88828200  0.45318300  0.26560500  1
  C  3281  1  0.91412200  0.48106000  0.30791500  1
  C  3282  1  0.87881900  0.50553600  0.30891200  1
  C  3289  1  0.89682400  0.44530600  0.77840200  1
  C  3290  1  0.90229400  0.45758200  0.79206900  1
  C  3292  1  0.89362900  0.48338400  0.77421400  1
  C  3293  1  0.88724100  0.47177200  0.76014300  1
  C  3294  1  0.88923000  0.45276900  0.76243600  1
  C  3296  1  0.89473700  0.50264100  0.77299900  1
  C  3297  1  0.90436600  0.51202500  0.75911700  1
  C  3298  1  0.90555500  0.53117000  0.76019700  1
  C  3299  1  0.89751700  0.54092100  0.77462800  1
  C  3300  1  0.88827900  0.53084400  0.78803500  1
  C  3305  1  0.91413700  0.50296500  0.74573200  1
  C  3306  1  0.87882000  0.47850500  0.74471500  1
  C  3313  1  0.08720600  0.53872200  0.77838700  1
  C  3314  1  0.08172300  0.52644600  0.79205000  1
  C  3316  1  0.09039400  0.50064000  0.77420400  1
  C  3317  1  0.09678900  0.51224900  0.76013500  1
  C  3318  1  0.09480100  0.53125200  0.76242400  1
  C  3320  1  0.08929000  0.48138300  0.77299500  1
  C  3321  1  0.07967300  0.47199100  0.75911000  1
  C  3322  1  0.07848600  0.45284500  0.76019700  1
  C  3323  1  0.08651400  0.44310300  0.77463900  1
  C  3324  1  0.09573900  0.45318600  0.78804800  1
  C  3329  1  0.06990900  0.48104400  0.74571400  1
  C  3330  1  0.10521800  0.50551200  0.74471300  1
  C  3337  1  0.08720400  0.44530700  0.27522500  1
  C  3338  1  0.08173600  0.45758600  0.26155900  1
  C  3340  1  0.09039500  0.48338600  0.27941800  1
  C  3341  1  0.09678200  0.47177300  0.29348900  1
  C  3342  1  0.09479400  0.45277100  0.29119300  1
  C  3344  1  0.08928500  0.50264200  0.28063700  1
  C  3345  1  0.07965300  0.51202400  0.29451800  1
  C  3346  1  0.07846500  0.53116900  0.29344100  1
  C  3347  1  0.08651100  0.54092700  0.27902000  1
  C  3348  1  0.09574400  0.53085000  0.26561000  1
  C  3353  1  0.06987800  0.50296100  0.30789900  1
  C  3354  1  0.10519800  0.47850500  0.30891800  1
  N  17  1  0.24181500  0.11461900  0.45144300  1
  N  18  1  0.27087700  0.09455400  0.40405800  1
  N  39  1  0.74221200  0.86939600  0.45144400  1
  N  40  1  0.71315200  0.88945600  0.40405500  1
  N  61  1  0.74221200  0.11462800  0.60219400  1
  N  62  1  0.71315100  0.09455100  0.64959600  1
  N  83  1  0.24179100  0.86941400  0.60218900  1
  N  84  1  0.27085800  0.88948100  0.64957600  1
  N  105  1  0.41663600  0.24180300  0.14942200  1
  N  106  1  0.36925200  0.27086500  0.12936000  1
  N  127  1  0.41663900  0.74221300  0.90420200  1
  N  128  1  0.36925100  0.71315200  0.92426200  1
  N  149  1  0.56738900  0.74220900  0.14943400  1
  N  150  1  0.61479200  0.71315100  0.12935600  1
  N  171  1  0.56738200  0.24180300  0.90421700  1
  N  172  1  0.61477000  0.27087000  0.92428800  1
  N  193  1  0.11462200  0.41663600  0.27661200  1
  N  194  1  0.09455900  0.36925100  0.30567400  1
  N  215  1  0.86940200  0.41663800  0.77702200  1
  N  216  1  0.88946000  0.36925100  0.74796100  1
  N  237  1  0.11462400  0.56738700  0.77700700  1
  N  238  1  0.09454600  0.61479100  0.74794800  1
  N  259  1  0.86940700  0.56738200  0.27660100  1
  N  260  1  0.88947800  0.61477300  0.30566700  1
  N  281  1  0.11461900  0.24181500  0.60218900  1
  N  282  1  0.09455400  0.27087700  0.64957400  1
  N  303  1  0.86939600  0.74221200  0.60218700  1
  N  304  1  0.88945600  0.71315200  0.64957700  1
  N  325  1  0.11462800  0.74221200  0.45143800  1
  N  326  1  0.09455100  0.71315100  0.40403400  1
  N  347  1  0.86941400  0.24179100  0.45144300  1
  N  348  1  0.88948100  0.27085800  0.40405500  1
  N  369  1  0.24180300  0.41663600  0.90420800  1
  N  370  1  0.27086500  0.36925200  0.92427100  1
  N  391  1  0.74221300  0.41663900  0.14942900  1
  N  392  1  0.71315200  0.36925100  0.12937000  1
  N  413  1  0.74220900  0.56738900  0.90419800  1
  N  414  1  0.71315100  0.61479200  0.92427500  1
  N  435  1  0.24180300  0.56738200  0.14941400  1
  N  436  1  0.27087000  0.61477000  0.12934400  1
  N  457  1  0.41663600  0.11462200  0.77702000  1
  N  458  1  0.36925100  0.09455900  0.74795800  1
  N  479  1  0.41663800  0.86940200  0.27661000  1
  N  480  1  0.36925100  0.88946000  0.30567000  1
  N  501  1  0.56738700  0.11462400  0.27662300  1
  N  502  1  0.61479100  0.09454600  0.30568400  1
  N  523  1  0.56738200  0.86940700  0.77702900  1
  N  524  1  0.61477300  0.88947800  0.74796500  1
  N  545  1  0.73686300  0.87036300  0.60444900  1
  N  546  1  0.71472500  0.89245200  0.65405400  1
  N  567  1  0.24717300  0.11367600  0.60445500  1
  N  568  1  0.26929800  0.09159000  0.65406200  1
  N  589  1  0.24716400  0.87034400  0.44917300  1
  N  590  1  0.26929800  0.89244700  0.39957800  1
  N  611  1  0.73687400  0.11365900  0.44918300  1
  N  612  1  0.71473800  0.09156700  0.39958600  1
  N  633  1  0.56964400  0.73686800  0.90516800  1
  N  634  1  0.61925000  0.71473300  0.92725800  1
  N  655  1  0.56964800  0.24717000  0.14847900  1
  N  656  1  0.61925600  0.26930100  0.12639300  1
  N  677  1  0.41436800  0.24716500  0.90514600  1
  N  678  1  0.36477100  0.26929700  0.92725000  1
  N  699  1  0.41437700  0.73686800  0.14846500  1
  N  700  1  0.36478200  0.71473100  0.12637300  1
  N  721  1  0.87036000  0.56964400  0.77166600  1
  N  722  1  0.89244700  0.61924900  0.74952700  1
  N  743  1  0.11367000  0.56964900  0.28196900  1
  N  744  1  0.09158300  0.61925700  0.30409400  1
  N  765  1  0.87034600  0.41436800  0.28196800  1
  N  766  1  0.89245200  0.36477100  0.30409900  1
  N  787  1  0.11366500  0.41437700  0.77167000  1
  N  788  1  0.09157500  0.36478000  0.74953400  1
  N  809  1  0.87036300  0.73686300  0.44918100  1
  N  810  1  0.89245200  0.71472500  0.39957600  1
  N  831  1  0.11367600  0.24717300  0.44917700  1
  N  832  1  0.09159000  0.26929800  0.39957000  1
  N  853  1  0.87034400  0.24716400  0.60445700  1
  N  854  1  0.89244700  0.26929800  0.65405400  1
  N  875  1  0.11365900  0.73687400  0.60444800  1
  N  876  1  0.09156700  0.71473800  0.65404500  1
  N  897  1  0.73686800  0.56964400  0.14846200  1
  N  898  1  0.71473300  0.61925000  0.12637300  1
  N  919  1  0.24717000  0.56964800  0.90515200  1
  N  920  1  0.26930100  0.61925600  0.92723700  1
  N  941  1  0.24716500  0.41436800  0.14848400  1
  N  942  1  0.26929700  0.36477100  0.12638200  1
  N  963  1  0.73686800  0.41437700  0.90516700  1
  N  964  1  0.71473100  0.36478200  0.92725900  1
  N  985  1  0.56964400  0.87036000  0.28196500  1
  N  986  1  0.61924900  0.89244700  0.30410500  1
  N  1007  1  0.56964900  0.11367000  0.77166300  1
  N  1008  1  0.61925700  0.09158300  0.74953700  1
  N  1029  1  0.41436800  0.87034600  0.77166400  1
  N  1030  1  0.36477100  0.89245200  0.74953100  1
  N  1051  1  0.41437700  0.11366500  0.28196100  1
  N  1052  1  0.36478000  0.09157500  0.30409800  1
  N  1059  1  0.16543100  0.19410100  0.41023600  1
  N  1069  1  0.19065000  0.16279000  0.38232500  1
  N  1083  1  0.81860500  0.78991600  0.41023600  1
  N  1093  1  0.79338200  0.82122300  0.38232400  1
  N  1107  1  0.81860500  0.19410100  0.64340300  1
  N  1117  1  0.79338500  0.16279200  0.67131500  1
  N  1131  1  0.16541200  0.78993000  0.64340000  1
  N  1141  1  0.19063200  0.82124000  0.67131000  1
  N  1155  1  0.37542600  0.16541500  0.22890000  1
  N  1165  1  0.34751500  0.19063400  0.19758800  1
  N  1179  1  0.37542300  0.81860700  0.82472600  1
  N  1189  1  0.34751400  0.79338500  0.85603300  1
  N  1203  1  0.60859100  0.81860200  0.22891000  1
  N  1213  1  0.63650600  0.79338200  0.19760200  1
  N  1227  1  0.60859100  0.16542900  0.82473000  1
  N  1237  1  0.63650200  0.19064900  0.85604000  1
  N  1251  1  0.19409900  0.37542500  0.20022300  1
  N  1261  1  0.16279000  0.34751500  0.22544500  1
  N  1275  1  0.78992600  0.37542500  0.85341500  1
  N  1285  1  0.82123500  0.34751400  0.82819500  1
  N  1299  1  0.19410200  0.60859400  0.85339600  1
  N  1309  1  0.16279100  0.63650600  0.82817900  1
  N  1323  1  0.78992200  0.60858800  0.20022300  1
  N  1333  1  0.82122700  0.63650000  0.22544600  1
  N  1347  1  0.19410100  0.16543100  0.64339600  1
  N  1357  1  0.16279000  0.19065000  0.67130700  1
  N  1371  1  0.78991600  0.81860500  0.64339500  1
  N  1381  1  0.82122300  0.79338200  0.67130700  1
  N  1395  1  0.19410100  0.81860500  0.41022700  1
  N  1405  1  0.16279200  0.79338500  0.38231700  1
  N  1419  1  0.78993000  0.16541200  0.41023200  1
  N  1429  1  0.82124000  0.19063200  0.38232100  1
  N  1443  1  0.16541500  0.37542600  0.82473200  1
  N  1453  1  0.19063400  0.34751500  0.85604200  1
  N  1467  1  0.81860700  0.37542300  0.22890500  1
  N  1477  1  0.79338500  0.34751400  0.19759800  1
  N  1491  1  0.81860200  0.60859100  0.82472000  1
  N  1501  1  0.79338200  0.63650600  0.85602900  1
  N  1515  1  0.16542900  0.60859100  0.22890200  1
  N  1525  1  0.19064900  0.63650200  0.19759200  1
  N  1539  1  0.37542500  0.19409900  0.85340900  1
  N  1549  1  0.34751500  0.16279000  0.82818600  1
  N  1563  1  0.37542500  0.78992600  0.20021500  1
  N  1573  1  0.34751400  0.82123500  0.22543500  1
  N  1587  1  0.60859400  0.19410200  0.20023500  1
  N  1597  1  0.63650600  0.16279100  0.22545100  1
  N  1611  1  0.60858800  0.78992200  0.85340700  1
  N  1621  1  0.63650000  0.82122700  0.82818500  1
  N  1635  1  0.67638700  0.70326200  0.91292200  1
  N  1645  1  0.69507400  0.66640200  0.88730200  1
  N  1659  1  0.30764000  0.28077400  0.91292500  1
  N  1669  1  0.28895200  0.31764300  0.88730600  1
  N  1683  1  0.30764100  0.70325200  0.14069900  1
  N  1693  1  0.28896200  0.66638600  0.16632100  1
  N  1707  1  0.67639800  0.28076200  0.14073700  1
  N  1717  1  0.69505700  0.31765100  0.16633600  1
  N  1731  1  0.87809900  0.67639200  0.73806200  1
  N  1741  1  0.85249400  0.69505400  0.70117600  1
  N  1755  1  0.87813500  0.30764400  0.31558300  1
  N  1765  1  0.85250500  0.28894400  0.35243600  1
  N  1779  1  0.10590800  0.30763700  0.73805900  1
  N  1789  1  0.13151900  0.28897100  0.70117800  1
  N  1803  1  0.10591200  0.67639200  0.31556200  1
  N  1813  1  0.13152700  0.69507600  0.35242600  1
  N  1827  1  0.70325300  0.87811300  0.71119400  1
  N  1837  1  0.66638200  0.85249900  0.72986800  1
  N  1851  1  0.28077400  0.87812100  0.34244500  1
  N  1861  1  0.31764100  0.85249900  0.32375600  1
  N  1875  1  0.70325900  0.10588900  0.34244800  1
  N  1885  1  0.66640600  0.13151700  0.32375600  1
  N  1899  1  0.28076200  0.10593200  0.71120300  1
  N  1909  1  0.31765400  0.13152900  0.72985900  1
  N  1923  1  0.70326200  0.67638700  0.14070800  1
  N  1933  1  0.66640200  0.69507400  0.16632900  1
  N  1947  1  0.28077400  0.30764000  0.14070600  1
  N  1957  1  0.31764300  0.28895200  0.16632600  1
  N  1971  1  0.70325200  0.30764100  0.91293200  1
  N  1981  1  0.66638600  0.28896200  0.88731100  1
  N  1995  1  0.28076200  0.67639800  0.91289500  1
  N  2005  1  0.31765100  0.69505700  0.88729500  1
  N  2019  1  0.67639200  0.87809900  0.31556900  1
  N  2029  1  0.69505400  0.85249400  0.35245500  1
  N  2043  1  0.30764400  0.87813500  0.73804900  1
  N  2053  1  0.28894400  0.85250500  0.70119500  1
  N  2067  1  0.30763700  0.10590800  0.31557200  1
  N  2077  1  0.28897100  0.13151900  0.35245300  1
  N  2091  1  0.67639200  0.10591200  0.73807000  1
  N  2101  1  0.69507600  0.13152700  0.70120600  1
  N  2115  1  0.87811300  0.70325300  0.34243700  1
  N  2125  1  0.85249900  0.66638200  0.32376400  1
  N  2139  1  0.87812100  0.28077400  0.71118700  1
  N  2149  1  0.85249900  0.31764100  0.72987600  1
  N  2163  1  0.10588900  0.70325900  0.71118300  1
  N  2173  1  0.13151700  0.66640600  0.72987600  1
  N  2187  1  0.10593200  0.28076200  0.34242900  1
  N  2197  1  0.13152900  0.31765400  0.32377100  1
  N  2211  1  0.24558500  0.00885100  0.44207500  1
  N  2221  1  0.24424400  0.97196800  0.41906500  1
  N  2235  1  0.73843400  0.97516200  0.44205600  1
  N  2245  1  0.73978000  0.01204700  0.41906600  1
  N  2259  1  0.73841500  0.00886100  0.61158300  1
  N  2269  1  0.73975900  0.97197400  0.63456600  1
  N  2283  1  0.24559300  0.97517500  0.61157700  1
  N  2293  1  0.24425600  0.01206100  0.63457100  1
  N  2307  1  0.40726800  0.24557900  0.04365500  1
  N  2317  1  0.38425800  0.24423800  0.00677200  1
  N  2331  1  0.40725000  0.73843200  0.00996900  1
  N  2341  1  0.38426100  0.73977600  0.04685200  1
  N  2355  1  0.57677700  0.73841700  0.04366700  1
  N  2365  1  0.59976200  0.73976300  0.00678100  1
  N  2379  1  0.57677200  0.24559800  0.00998000  1
  N  2389  1  0.59976600  0.24426100  0.04686400  1
  N  2403  1  0.00885500  0.40726800  0.28038500  1
  N  2413  1  0.97197200  0.38425800  0.27904200  1
  N  2427  1  0.97516900  0.40725000  0.77323800  1
  N  2437  1  0.01205300  0.38426100  0.77458000  1
  N  2451  1  0.00885700  0.57677700  0.77321500  1
  N  2461  1  0.97197200  0.59976000  0.77455700  1
  N  2475  1  0.97517000  0.57677200  0.28039600  1
  N  2485  1  0.01205500  0.59976600  0.27905600  1
  N  2499  1  0.00885100  0.24558500  0.61155700  1
  N  2509  1  0.97196800  0.24424400  0.63456700  1
  N  2523  1  0.97516200  0.73843400  0.61157500  1
  N  2533  1  0.01204700  0.73978000  0.63456600  1
  N  2547  1  0.00886100  0.73841500  0.44204800  1
  N  2557  1  0.97197400  0.73975900  0.41906500  1
  N  2571  1  0.97517500  0.24559300  0.44205300  1
  N  2581  1  0.01206100  0.24425600  0.41905900  1
  N  2595  1  0.24557900  0.40726800  0.00997700  1
  N  2605  1  0.24423800  0.38425800  0.04686000  1
  N  2619  1  0.73843100  0.40725000  0.04366300  1
  N  2629  1  0.73977600  0.38426100  0.00677900  1
  N  2643  1  0.73841700  0.57677700  0.00996500  1
  N  2653  1  0.73976300  0.59976200  0.04685100  1
  N  2667  1  0.24559800  0.57677200  0.04365200  1
  N  2677  1  0.24426100  0.59976600  0.00676800  1
  N  2691  1  0.40726800  0.00885500  0.77324700  1
  N  2701  1  0.38425800  0.97197200  0.77458800  1
  N  2715  1  0.40725000  0.97516900  0.28039400  1
  N  2725  1  0.38426100  0.01205300  0.27905000  1
  N  2739  1  0.57677700  0.00885700  0.28041600  1
  N  2749  1  0.59976000  0.97197200  0.27907300  1
  N  2763  1  0.57677200  0.97517000  0.77323500  1
  N  2773  1  0.59976600  0.01205500  0.77457500  1
  N  2787  1  0.75461700  0.50830300  0.93554400  1
  N  2797  1  0.75202600  0.47155500  0.92221300  1
  N  2811  1  0.22939600  0.47572900  0.93553700  1
  N  2821  1  0.23201600  0.51248100  0.92220600  1
  N  2835  1  0.22940000  0.50829600  0.11808400  1
  N  2845  1  0.23201400  0.47155300  0.13141600  1
  N  2859  1  0.75462700  0.47572500  0.11809400  1
  N  2869  1  0.75201800  0.51247600  0.13142400  1
  N  2883  1  0.90073000  0.75462500  0.54310100  1
  N  2893  1  0.88740100  0.75201600  0.50634900  1
  N  2907  1  0.90074500  0.22939400  0.51053000  1
  N  2917  1  0.88741300  0.23201000  0.54727300  1
  N  2931  1  0.08329200  0.22940200  0.54309600  1
  N  2941  1  0.09662200  0.23202000  0.50634500  1
  N  2955  1  0.08328100  0.75461800  0.51052200  1
  N  2965  1  0.09661100  0.75202900  0.54727200  1
  N  2979  1  0.50829600  0.90074000  0.78943200  1
  N  2989  1  0.47155200  0.88741200  0.78681700  1
  N  3003  1  0.47572500  0.90073500  0.26420000  1
  N  3013  1  0.51247600  0.88740200  0.26681100  1
  N  3027  1  0.50830100  0.08328100  0.26421500  1
  N  3037  1  0.47155500  0.09661400  0.26680400  1
  N  3051  1  0.47572900  0.08329300  0.78943200  1
  N  3061  1  0.51248100  0.09662000  0.78681300  1
  N  3075  1  0.50830300  0.75461700  0.11808700  1
  N  3085  1  0.47155500  0.75202600  0.13141700  1
  N  3099  1  0.47572900  0.22939600  0.11809400  1
  N  3109  1  0.51248100  0.23201600  0.13142500  1
  N  3123  1  0.50829600  0.22940000  0.93554800  1
  N  3133  1  0.47155300  0.23201400  0.92221600  1
  N  3147  1  0.47572500  0.75462700  0.93553700  1
  N  3157  1  0.51247600  0.75201800  0.92220800  1
  N  3171  1  0.75462500  0.90073000  0.51053000  1
  N  3181  1  0.75201600  0.88740100  0.54728100  1
  N  3195  1  0.22939400  0.90074500  0.54310100  1
  N  3205  1  0.23201000  0.88741300  0.50635900  1
  N  3219  1  0.22940200  0.08329200  0.51053500  1
  N  3229  1  0.23202000  0.09662200  0.54728700  1
  N  3243  1  0.75461800  0.08328100  0.54310800  1
  N  3253  1  0.75202900  0.09661100  0.50636000  1
  N  3267  1  0.90074000  0.50829600  0.26419900  1
  N  3277  1  0.88741200  0.47155200  0.26681400  1
  N  3291  1  0.90073500  0.47572500  0.78943000  1
  N  3301  1  0.88740200  0.51247600  0.78682000  1
  N  3315  1  0.08328100  0.50830100  0.78941500  1
  N  3325  1  0.09661400  0.47155500  0.78682600  1
  N  3339  1  0.08329300  0.47572900  0.26419900  1
  N  3349  1  0.09662000  0.51248100  0.26681800  1
  O  1075  1  0.19108900  0.17416800  0.44222600  1
  O  1076  1  0.16887900  0.15752400  0.43759900  1
  O  1078  1  0.16370500  0.18346300  0.35006900  1
  O  1079  1  0.15025200  0.16201700  0.36397300  1
  O  1099  1  0.79294500  0.80984600  0.44222600  1
  O  1100  1  0.81515200  0.82649300  0.43759900  1
  O  1102  1  0.82032700  0.80054800  0.35006900  1
  O  1103  1  0.83377800  0.82199700  0.36397000  1
  O  1123  1  0.79294100  0.17417900  0.61141600  1
  O  1124  1  0.81514600  0.15752800  0.61603600  1
  O  1126  1  0.82032900  0.18346900  0.70357000  1
  O  1127  1  0.83378000  0.16202100  0.68967000  1
  O  1147  1  0.19107500  0.80985300  0.61141000  1
  O  1148  1  0.16887000  0.82650400  0.61603100  1
  O  1150  1  0.16368800  0.80056600  0.70356600  1
  O  1151  1  0.15023500  0.82201300  0.68966500  1
  O  1171  1  0.40741600  0.19107200  0.20897100  1
  O  1172  1  0.40279200  0.16886600  0.19232400  1
  O  1174  1  0.31525900  0.16369400  0.21826900  1
  O  1175  1  0.32915800  0.15023800  0.19682100  1
  O  1195  1  0.40741600  0.79295300  0.84465500  1
  O  1196  1  0.40278700  0.81515900  0.86130300  1
  O  1198  1  0.31525700  0.82033000  0.83535900  1
  O  1199  1  0.32915800  0.83378000  0.85680800  1
  O  1219  1  0.57660600  0.79293300  0.20898700  1
  O  1220  1  0.58122300  0.81514000  0.19233700  1
  O  1222  1  0.66875900  0.82032600  0.21828000  1
  O  1223  1  0.65485900  0.83377900  0.19683200  1
  O  1243  1  0.57660100  0.19109100  0.84465500  1
  O  1244  1  0.58122300  0.16888400  0.86130400  1
  O  1246  1  0.66875600  0.16369800  0.83537100  1
  O  1247  1  0.65485000  0.15024900  0.85681700  1
  O  1267  1  0.17417000  0.40741600  0.22587800  1
  O  1268  1  0.15752100  0.40278800  0.20367100  1
  O  1270  1  0.18346700  0.31525800  0.19850300  1
  O  1271  1  0.16202000  0.32915600  0.18505000  1
  O  1291  1  0.80985300  0.40741500  0.82775700  1
  O  1292  1  0.82650100  0.40279100  0.84996500  1
  O  1294  1  0.80055800  0.31525800  0.85513800  1
  O  1295  1  0.82200700  0.32915900  0.86859100  1
  O  1315  1  0.17417800  0.57660600  0.82773000  1
  O  1316  1  0.15753100  0.58122500  0.84993800  1
  O  1318  1  0.18346500  0.66875900  0.85512700  1
  O  1319  1  0.16201900  0.65485500  0.86857900  1
  O  1339  1  0.80984600  0.57660000  0.22588700  1
  O  1340  1  0.82649600  0.58122200  0.20368200  1
  O  1342  1  0.80055500  0.66875500  0.19849900  1
  O  1343  1  0.82200400  0.65485400  0.18504900  1
  O  1363  1  0.17416800  0.19108900  0.61140500  1
  O  1364  1  0.15752400  0.16887900  0.61603100  1
  O  1366  1  0.18346300  0.16370500  0.70356200  1
  O  1367  1  0.16201700  0.15025200  0.68965900  1
  O  1387  1  0.80984600  0.79294500  0.61140500  1
  O  1388  1  0.82649300  0.81515200  0.61603300  1
  O  1390  1  0.80054800  0.82032700  0.70356300  1
  O  1391  1  0.82199700  0.83377800  0.68966200  1
  O  1411  1  0.17417900  0.79294100  0.44221500  1
  O  1412  1  0.15752800  0.81514600  0.43759600  1
  O  1414  1  0.18346900  0.82032900  0.35006100  1
  O  1415  1  0.16202100  0.83378000  0.36396000  1
  O  1435  1  0.80985300  0.19107500  0.44222000  1
  O  1436  1  0.82650400  0.16887000  0.43760000  1
  O  1438  1  0.80056600  0.16368800  0.35006500  1
  O  1439  1  0.82201300  0.15023500  0.36396700  1
  O  1459  1  0.19107200  0.40741600  0.84465900  1
  O  1460  1  0.16886600  0.40279200  0.86130800  1
  O  1462  1  0.16369400  0.31525900  0.83536200  1
  O  1463  1  0.15023800  0.32915800  0.85680900  1
  O  1483  1  0.79295300  0.40741600  0.20897700  1
  O  1484  1  0.81515900  0.40278700  0.19232800  1
  O  1486  1  0.82033000  0.31525700  0.21827100  1
  O  1487  1  0.83378000  0.32915800  0.19682300  1
  O  1507  1  0.79293300  0.57660600  0.84464300  1
  O  1508  1  0.81514000  0.58122300  0.86129300  1
  O  1510  1  0.82032600  0.66875900  0.83535100  1
  O  1511  1  0.83377900  0.65485900  0.85680000  1
  O  1531  1  0.19109100  0.57660100  0.20897700  1
  O  1532  1  0.16888400  0.58122300  0.19232800  1
  O  1534  1  0.16369800  0.66875600  0.21826100  1
  O  1535  1  0.15024900  0.65485000  0.19681500  1
  O  1555  1  0.40741600  0.17417000  0.82775400  1
  O  1556  1  0.40278800  0.15752100  0.84996100  1
  O  1558  1  0.31525800  0.18346700  0.85512700  1
  O  1559  1  0.32915600  0.16202000  0.86858200  1
  O  1579  1  0.40741500  0.80985300  0.22587400  1
  O  1580  1  0.40279100  0.82650100  0.20366700  1
  O  1582  1  0.31525800  0.80055800  0.19849200  1
  O  1583  1  0.32915900  0.82200700  0.18503900  1
  O  1603  1  0.57660600  0.17417800  0.22590200  1
  O  1604  1  0.58122500  0.15753100  0.20369300  1
  O  1606  1  0.66875900  0.18346500  0.19850500  1
  O  1607  1  0.65485500  0.16201900  0.18505200  1
  O  1627  1  0.57660000  0.80984600  0.82774300  1
  O  1628  1  0.58122200  0.82649600  0.84994800  1
  O  1630  1  0.66875500  0.80055500  0.85513300  1
  O  1631  1  0.65485400  0.82200400  0.86858200  1
  O  1651  1  0.70640000  0.68613400  0.94422700  1
  O  1652  1  0.68264500  0.67108600  0.94518100  1
  O  1654  1  0.65834400  0.67786100  0.86017300  1
  O  1655  1  0.65080800  0.66078900  0.88222500  1
  O  1675  1  0.27758600  0.29785300  0.94419700  1
  O  1676  1  0.30132700  0.31292000  0.94519700  1
  O  1678  1  0.32562500  0.30614000  0.86014600  1
  O  1679  1  0.33321500  0.32321900  0.88217300  1
  O  1699  1  0.27761000  0.68614300  0.10941100  1
  O  1700  1  0.30136100  0.67108800  0.10843400  1
  O  1702  1  0.32566900  0.67786500  0.19345700  1
  O  1703  1  0.33322900  0.66079400  0.17141500  1
  O  1723  1  0.70644200  0.29785100  0.10944700  1
  O  1724  1  0.68269000  0.31290100  0.10844800  1
  O  1726  1  0.65831300  0.30621000  0.19344700  1
  O  1727  1  0.65078100  0.32325700  0.17137600  1
  O  1747  1  0.90938100  0.70644500  0.72097600  1
  O  1748  1  0.91038400  0.68269500  0.70592200  1
  O  1750  1  0.82538100  0.65831700  0.71262600  1
  O  1751  1  0.84744500  0.65078100  0.69557300  1
  O  1771  1  0.90941700  0.27761000  0.33268500  1
  O  1772  1  0.91039100  0.30135600  0.34774900  1
  O  1774  1  0.82533700  0.32561200  0.34092600  1
  O  1775  1  0.84735600  0.33320200  0.35801500  1
  O  1795  1  0.07463100  0.27758600  0.72097500  1
  O  1796  1  0.07362700  0.30133400  0.70591700  1
  O  1798  1  0.15864900  0.32568400  0.71265200  1
  O  1799  1  0.13659800  0.33324300  0.69559000  1
  O  1819  1  0.07460100  0.70639700  0.33269300  1
  O  1820  1  0.07365100  0.68264000  0.34773800  1
  O  1822  1  0.15865300  0.65833900  0.34097500  1
  O  1823  1  0.13659600  0.65080800  0.35804000  1
  O  1843  1  0.68614600  0.90940600  0.74122600  1
  O  1844  1  0.67109700  0.91038400  0.71747200  1
  O  1846  1  0.67783900  0.82537600  0.69313700  1
  O  1847  1  0.66077700  0.84743300  0.68559800  1
  O  1867  1  0.29785500  0.90939300  0.31239100  1
  O  1868  1  0.31292300  0.91039100  0.33613300  1
  O  1870  1  0.30614000  0.82534100  0.36043200  1
  O  1871  1  0.32321900  0.84736800  0.36801800  1
  O  1891  1  0.68613100  0.07459000  0.31243600  1
  O  1892  1  0.67107800  0.07363700  0.33618800  1
  O  1894  1  0.67788800  0.15866000  0.36046400  1
  O  1895  1  0.66080700  0.13662300  0.36801800  1
  O  1915  1  0.29784900  0.07464300  0.74124800  1
  O  1916  1  0.31289900  0.07364100  0.71749400  1
  O  1918  1  0.30621200  0.15864200  0.69312000  1
  O  1919  1  0.32325700  0.13657100  0.68558400  1
  O  1939  1  0.68613400  0.70640000  0.10940400  1
  O  1940  1  0.67108600  0.68264500  0.10845000  1
  O  1942  1  0.67786100  0.65834400  0.19345700  1
  O  1943  1  0.66078900  0.65080800  0.17140700  1
  O  1963  1  0.29785300  0.27758600  0.10943400  1
  O  1964  1  0.31292000  0.30132700  0.10843400  1
  O  1966  1  0.30614000  0.32562500  0.19348600  1
  O  1967  1  0.32321900  0.33321500  0.17145900  1
  O  1987  1  0.68614300  0.27761000  0.94422000  1
  O  1988  1  0.67108800  0.30136100  0.94519700  1
  O  1990  1  0.67786500  0.32566900  0.86017300  1
  O  1991  1  0.66079400  0.33322900  0.88221500  1
  O  2011  1  0.29785100  0.70644200  0.94418500  1
  O  2012  1  0.31290100  0.68269000  0.94518400  1
  O  2014  1  0.30621000  0.65831300  0.86018500  1
  O  2015  1  0.32325700  0.65078100  0.88225600  1
  O  2035  1  0.70644500  0.90938100  0.33265600  1
  O  2036  1  0.68269500  0.91038400  0.34771000  1
  O  2038  1  0.65831700  0.82538100  0.34100500  1
  O  2039  1  0.65078100  0.84744500  0.35805800  1
  O  2059  1  0.27761000  0.90941700  0.72094600  1
  O  2060  1  0.30135600  0.91039100  0.70588300  1
  O  2062  1  0.32561200  0.82533700  0.71270500  1
  O  2063  1  0.33320200  0.84735600  0.69561600  1
  O  2083  1  0.27758600  0.07463100  0.33265700  1
  O  2084  1  0.30133400  0.07362700  0.34771500  1
  O  2086  1  0.32568400  0.15864900  0.34097900  1
  O  2087  1  0.33324300  0.13659800  0.35804000  1
  O  2107  1  0.70639700  0.07460100  0.72093800  1
  O  2108  1  0.68264000  0.07365100  0.70589400  1
  O  2110  1  0.65833900  0.15865300  0.71265600  1
  O  2111  1  0.65080800  0.13659600  0.69559000  1
  O  2131  1  0.90940600  0.68614600  0.31240600  1
  O  2132  1  0.91038400  0.67109700  0.33615800  1
  O  2134  1  0.82537600  0.67783900  0.36049300  1
  O  2135  1  0.84743300  0.66077700  0.36803400  1
  O  2155  1  0.90939300  0.29785500  0.74124000  1
  O  2156  1  0.91039100  0.31292300  0.71749900  1
  O  2158  1  0.82534100  0.30614000  0.69319800  1
  O  2159  1  0.84736800  0.32321900  0.68561200  1
  O  2179  1  0.07459000  0.68613100  0.74119500  1
  O  2180  1  0.07363700  0.67107800  0.71744200  1
  O  2182  1  0.15866000  0.67788800  0.69316700  1
  O  2183  1  0.13662300  0.66080700  0.68561200  1
  O  2203  1  0.07464300  0.29784900  0.31238400  1
  O  2204  1  0.07364100  0.31289900  0.33613700  1
  O  2206  1  0.15864200  0.30621200  0.36051200  1
  O  2207  1  0.13657100  0.32325700  0.36804700  1
  O  2227  1  0.21671300  0.98957500  0.46730800  1
  O  2228  1  0.19680500  0.99231700  0.44772900  1
  O  2230  1  0.22212800  0.99708600  0.39117600  1
  O  2231  1  0.19873800  0.00657500  0.40519800  1
  O  2251  1  0.76734600  0.99440600  0.46727000  1
  O  2252  1  0.78725400  0.99169900  0.44768500  1
  O  2254  1  0.76194000  0.98694500  0.39118800  1
  O  2255  1  0.78531300  0.97738100  0.40519100  1
  O  2275  1  0.76733700  0.98961900  0.58637600  1
  O  2276  1  0.78724300  0.99232100  0.60596300  1
  O  2278  1  0.76192400  0.99707000  0.66244800  1
  O  2279  1  0.78529500  0.00664700  0.64845400  1
  O  2299  1  0.21669700  0.99444000  0.58635900  1
  O  2300  1  0.19678900  0.99171700  0.60594100  1
  O  2302  1  0.22210900  0.98696000  0.66245700  1
  O  2303  1  0.19872900  0.97742200  0.64845200  1
  O  2323  1  0.43250300  0.21671000  0.02437600  1
  O  2324  1  0.41292600  0.19680100  0.02711800  1
  O  2326  1  0.35636900  0.22212300  0.03188900  1
  O  2327  1  0.37039400  0.19873300  0.04137500  1
  O  2347  1  0.43246200  0.76734600  0.02921300  1
  O  2348  1  0.41287700  0.78725400  0.02650900  1
  O  2350  1  0.35638400  0.76194000  0.02175400  1
  O  2351  1  0.37038600  0.78531100  0.01218600  1
  O  2371  1  0.55156800  0.76733700  0.02442600  1
  O  2372  1  0.57115500  0.78724500  0.02713000  1
  O  2374  1  0.62764400  0.76192400  0.03187800  1
  O  2375  1  0.61364800  0.78529700  0.04145200  1
  O  2395  1  0.55155600  0.21669900  0.02924200  1
  O  2396  1  0.57113800  0.19679100  0.02651800  1
  O  2398  1  0.62765200  0.22211300  0.02176300  1
  O  2399  1  0.61364800  0.19873400  0.01222200  1
  O  2419  1  0.98957700  0.43250600  0.25151800  1
  O  2420  1  0.99232100  0.41292900  0.23160800  1
  O  2422  1  0.99709000  0.35636900  0.25692800  1
  O  2423  1  0.00657400  0.37039400  0.23353800  1
  O  2443  1  0.99441300  0.43246100  0.80215300  1
  O  2444  1  0.99171100  0.41287500  0.82205900  1
  O  2446  1  0.98695500  0.35638400  0.79674700  1
  O  2447  1  0.97738400  0.37038400  0.82011700  1
  O  2467  1  0.98961700  0.55157400  0.80214100  1
  O  2468  1  0.99231700  0.57116100  0.82204700  1
  O  2470  1  0.99706500  0.62764100  0.79672400  1
  O  2471  1  0.00664900  0.61365000  0.82009500  1
  O  2491  1  0.99443300  0.55155100  0.25150400  1
  O  2492  1  0.99170500  0.57113000  0.23159400  1
  O  2494  1  0.98695100  0.62765300  0.25691300  1
  O  2495  1  0.97741800  0.61364500  0.23353300  1
  O  2515  1  0.98957500  0.21671300  0.58632400  1
  O  2516  1  0.99231700  0.19680500  0.60590200  1
  O  2518  1  0.99708600  0.22212800  0.66245600  1
  O  2519  1  0.00657500  0.19873800  0.64843400  1
  O  2539  1  0.99440600  0.76734600  0.58636200  1
  O  2540  1  0.99169900  0.78725400  0.60594500  1
  O  2542  1  0.98694500  0.76194000  0.66244400  1
  O  2543  1  0.97738100  0.78531300  0.64844100  1
  O  2563  1  0.98961900  0.76733700  0.46725500  1
  O  2564  1  0.99232100  0.78724300  0.44766900  1
  O  2566  1  0.99707000  0.76192400  0.39118400  1
  O  2567  1  0.00664800  0.78529500  0.40517700  1
  O  2587  1  0.99444000  0.21669700  0.46727200  1
  O  2588  1  0.99171700  0.19678900  0.44769100  1
  O  2590  1  0.98696000  0.22210900  0.39117300  1
  O  2591  1  0.97742200  0.19872900  0.40517900  1
  O  2611  1  0.21671000  0.43250300  0.02925600  1
  O  2612  1  0.19680100  0.41292600  0.02651300  1
  O  2614  1  0.22212300  0.35636900  0.02174300  1
  O  2615  1  0.19873300  0.37039400  0.01225700  1
  O  2635  1  0.76734500  0.43246200  0.02441900  1
  O  2636  1  0.78725400  0.41287700  0.02712300  1
  O  2638  1  0.76194000  0.35638400  0.03187700  1
  O  2639  1  0.78531100  0.37038600  0.04144600  1
  O  2659  1  0.76733700  0.55156800  0.02920600  1
  O  2660  1  0.78724500  0.57115500  0.02650100  1
  O  2662  1  0.76192400  0.62764400  0.02175400  1
  O  2663  1  0.78529700  0.61364800  0.01218000  1
  O  2683  1  0.21669900  0.55155600  0.02439000  1
  O  2684  1  0.19679100  0.57113800  0.02711300  1
  O  2686  1  0.22211300  0.62765200  0.03186900  1
  O  2687  1  0.19873400  0.61364800  0.04141000  1
  O  2707  1  0.43250600  0.98957700  0.80211300  1
  O  2708  1  0.41292900  0.99232100  0.82202300  1
  O  2710  1  0.35636900  0.99709000  0.79670400  1
  O  2711  1  0.37039400  0.00657400  0.82009200  1
  O  2731  1  0.43246100  0.99441300  0.25147900  1
  O  2732  1  0.41287500  0.99171100  0.23157100  1
  O  2734  1  0.35638400  0.98695500  0.25688500  1
  O  2735  1  0.37038400  0.97738400  0.23351400  1
  O  2755  1  0.55157400  0.98961700  0.25149000  1
  O  2756  1  0.57116100  0.99231700  0.23158500  1
  O  2758  1  0.62764100  0.99706500  0.25690600  1
  O  2759  1  0.61365000  0.00664900  0.23353500  1
  O  2779  1  0.55155100  0.99443300  0.80212800  1
  O  2780  1  0.57113000  0.99170500  0.82203600  1
  O  2782  1  0.62765300  0.98695100  0.79671700  1
  O  2783  1  0.61364500  0.97741800  0.82009800  1
  O  2803  1  0.71544800  0.48771600  0.96341300  1
  O  2804  1  0.69466700  0.47698300  0.94780700  1
  O  2806  1  0.71180700  0.49707300  0.89939600  1
  O  2807  1  0.69480200  0.51137100  0.91800200  1
  O  2827  1  0.26854300  0.49629300  0.96343800  1
  O  2828  1  0.28934700  0.50701200  0.94785300  1
  O  2830  1  0.27223400  0.48695600  0.89942500  1
  O  2831  1  0.28922200  0.47263900  0.91803500  1
  O  2851  1  0.26857300  0.48771600  0.09020800  1
  O  2852  1  0.28936500  0.47700400  0.10581300  1
  O  2854  1  0.27222300  0.49710600  0.15422400  1
  O  2855  1  0.28922000  0.51139900  0.13560700  1
  O  2875  1  0.71547800  0.49629400  0.09019800  1
  O  2876  1  0.69468200  0.50702400  0.10578800  1
  O  2878  1  0.71179500  0.48696300  0.15421100  1
  O  2879  1  0.69480300  0.47264900  0.13560300  1
  O  2899  1  0.92862700  0.71547700  0.52253200  1
  O  2900  1  0.91303900  0.69467900  0.51180400  1
  O  2902  1  0.86461500  0.71179200  0.53186400  1
  O  2903  1  0.88322300  0.69480000  0.54617800  1
  O  2923  1  0.92861900  0.26856900  0.53110800  1
  O  2924  1  0.91301300  0.28936200  0.54181900  1
  O  2926  1  0.86460300  0.27221700  0.52171900  1
  O  2927  1  0.88321800  0.28921300  0.50742300  1
  O  2947  1  0.05538800  0.26854600  0.52253100  1
  O  2948  1  0.07097300  0.28935000  0.51181100  1
  O  2950  1  0.11940300  0.27224100  0.53186800  1
  O  2951  1  0.10079100  0.28922900  0.54618200  1
  O  2971  1  0.05541200  0.71545100  0.53111000  1
  O  2972  1  0.07102000  0.69467000  0.54184300  1
  O  2974  1  0.11942900  0.71181000  0.52175400  1
  O  2975  1  0.10082300  0.69480400  0.50745600  1
  O  2995  1  0.48772000  0.92861900  0.75025900  1
  O  2996  1  0.47700800  0.91301500  0.72946600  1
  O  2998  1  0.49710500  0.86460100  0.74660700  1
  O  2999  1  0.51140100  0.88321800  0.72961200  1
  O  3019  1  0.49629600  0.92862700  0.30335300  1
  O  3020  1  0.50702100  0.91303800  0.32414900  1
  O  3022  1  0.48695900  0.86461600  0.30703200  1
  O  3023  1  0.47264500  0.88322400  0.32402500  1
  O  3043  1  0.48771200  0.05541300  0.30338300  1
  O  3044  1  0.47698100  0.07102100  0.32416300  1
  O  3046  1  0.49707500  0.11943000  0.30702300  1
  O  3047  1  0.51136900  0.10082200  0.32403000  1
  O  3067  1  0.49629100  0.05538800  0.75028600  1
  O  3068  1  0.50701300  0.07097200  0.72948300  1
  O  3070  1  0.48696000  0.11940300  0.74659200  1
  O  3071  1  0.47264300  0.10079200  0.72960600  1
  O  3091  1  0.48771600  0.71544800  0.09021800  1
  O  3092  1  0.47698300  0.69466700  0.10582500  1
  O  3094  1  0.49707300  0.71180700  0.15423500  1
  O  3095  1  0.51137100  0.69480200  0.13562900  1
  O  3115  1  0.49629300  0.26854300  0.09019300  1
  O  3116  1  0.50701200  0.28934700  0.10577800  1
  O  3118  1  0.48695600  0.27223400  0.15420600  1
  O  3119  1  0.47263900  0.28922200  0.13559600  1
  O  3139  1  0.48771600  0.26857300  0.96342300  1
  O  3140  1  0.47700400  0.28936500  0.94781700  1
  O  3142  1  0.49710600  0.27222300  0.89940700  1
  O  3143  1  0.51139900  0.28922000  0.91802400  1
  O  3163  1  0.49629400  0.71547800  0.96343300  1
  O  3164  1  0.50702400  0.69468200  0.94784300  1
  O  3166  1  0.48696300  0.71179500  0.89942000  1
  O  3167  1  0.47264900  0.69480300  0.91802800  1
  O  3187  1  0.71547700  0.92862700  0.53110000  1
  O  3188  1  0.69467900  0.91303900  0.54182800  1
  O  3190  1  0.71179200  0.86461500  0.52176700  1
  O  3191  1  0.69480000  0.88322300  0.50745300  1
  O  3211  1  0.26856900  0.92861900  0.52252400  1
  O  3212  1  0.28936200  0.91301300  0.51181300  1
  O  3214  1  0.27221700  0.86460300  0.53191300  1
  O  3215  1  0.28921300  0.88321800  0.54620900  1
  O  3235  1  0.26854600  0.05538800  0.53110100  1
  O  3236  1  0.28935000  0.07097300  0.54182100  1
  O  3238  1  0.27224100  0.11940300  0.52176300  1
  O  3239  1  0.28922900  0.10079100  0.50744900  1
  O  3259  1  0.71545100  0.05541200  0.52252000  1
  O  3260  1  0.69467000  0.07102000  0.51178800  1
  O  3262  1  0.71181000  0.11942900  0.53187700  1
  O  3263  1  0.69480400  0.10082300  0.54617500  1
  O  3283  1  0.92861900  0.48772000  0.30337200  1
  O  3284  1  0.91301500  0.47700800  0.32416500  1
  O  3286  1  0.86460100  0.49710500  0.30702300  1
  O  3287  1  0.88321800  0.51140100  0.32402000  1
  O  3307  1  0.92862700  0.49629600  0.75027900  1
  O  3308  1  0.91303800  0.50702100  0.72948200  1
  O  3310  1  0.86461600  0.48695900  0.74659900  1
  O  3311  1  0.88322400  0.47264500  0.72960700  1
  O  3331  1  0.05541300  0.48771200  0.75024800  1
  O  3332  1  0.07102100  0.47698100  0.72946700  1
  O  3334  1  0.11943000  0.49707500  0.74660700  1
  O  3335  1  0.10082200  0.51136900  0.72960200  1
  O  3355  1  0.05538800  0.49629100  0.30334500  1
  O  3356  1  0.07097200  0.50701300  0.32414900  1
  O  3358  1  0.11940300  0.48696000  0.30703800  1
  O  3359  1  0.10079200  0.47264300  0.32402600  1
