# generated using pymatgen
data_H24C39N8
_symmetry_space_group_name_H-M   'P 1'
_cell_length_a   41.89905000
_cell_length_b   41.89900000
_cell_length_c   58.45470000
_cell_angle_alpha   90.00000000
_cell_angle_beta   90.00000000
_cell_angle_gamma   119.99988157
_symmetry_Int_Tables_number   1
_chemical_formula_structural   H24C39N8
_chemical_formula_sum   'H576 C936 N192'
_cell_volume   88870.66293827
_cell_formula_units_Z   24
loop_
 _symmetry_equiv_pos_site_id
 _symmetry_equiv_pos_as_xyz
  1  'x, y, z'
loop_
 _atom_site_type_symbol
 _atom_site_label
 _atom_site_symmetry_multiplicity
 _atom_site_fract_x
 _atom_site_fract_y
 _atom_site_fract_z
 _atom_site_occupancy
  H  25  1  0.77580200  0.63123100  0.88270300  1
  H  26  1  0.71021200  0.59872300  0.87752100  1
  H  27  1  0.59015100  0.47886900  0.87751000  1
  H  28  1  0.55747900  0.41328000  0.88260200  1
  H  29  1  0.64751600  0.42048000  0.91856700  1
  H  30  1  0.76815400  0.54112900  0.91880900  1
  H  31  1  0.70256200  0.48641500  0.86768600  1
  H  32  1  0.76080900  0.42890800  0.86799400  1
  H  33  1  0.76052400  0.42887400  0.90893400  1
  H  34  1  0.66738100  0.52052300  0.94470300  1
  H  35  1  0.72622300  0.46155000  0.98349400  1
  H  36  1  0.69777900  0.48860700  0.00527100  1
  H  39  1  0.64655400  0.54234100  0.89682900  1
  H  40  1  0.65790200  0.53106600  0.86999100  1
  H  42  1  0.71850900  0.42814200  0.94357800  1
  H  43  1  0.76074100  0.47048200  0.94363100  1
  H  72  1  0.04523900  0.41514800  0.88278100  1
  H  73  1  0.07829400  0.48073100  0.87757400  1
  H  74  1  0.07851000  0.60080500  0.87752400  1
  H  75  1  0.04563800  0.63351800  0.88264300  1
  H  76  1  0.96274700  0.54346200  0.91857600  1
  H  77  1  0.96268800  0.42278500  0.91878800  1
  H  78  1  0.97359400  0.48843100  0.86767100  1
  H  79  1  0.85783900  0.43022000  0.86797500  1
  H  80  1  0.85808500  0.43048800  0.90891500  1
  H  81  1  0.04287700  0.52353800  0.94469000  1
  H  82  1  0.92505600  0.46471600  0.98347800  1
  H  83  1  0.98055600  0.49313600  0.00525500  1
  H  86  1  0.08553300  0.54437600  0.89683600  1
  H  87  1  0.06292500  0.53303700  0.86999300  1
  H  89  1  0.89937800  0.47247000  0.94356700  1
  H  90  1  0.89946200  0.43022600  0.94360600  1
  H  119  1  0.55968000  0.14569400  0.88276400  1
  H  120  1  0.59220800  0.11263400  0.87757200  1
  H  121  1  0.71207200  0.11244500  0.87753600  1
  H  122  1  0.77766400  0.14537100  0.88260200  1
  H  123  1  0.77047400  0.22823900  0.91855500  1
  H  124  1  0.64982800  0.22821900  0.91881400  1
  H  125  1  0.70455400  0.21733500  0.86769200  1
  H  126  1  0.76207200  0.33309100  0.86800300  1
  H  127  1  0.76209500  0.33283900  0.90894300  1
  H  128  1  0.67043100  0.14804400  0.94470800  1
  H  129  1  0.72939800  0.26585800  0.98350200  1
  H  130  1  0.70233700  0.21035600  0.00527800  1
  H  133  1  0.64861300  0.10539400  0.89685300  1
  H  134  1  0.65987700  0.12800400  0.87001100  1
  H  136  1  0.76281400  0.29155200  0.94358700  1
  H  137  1  0.72047400  0.29144600  0.94363700  1
  H  166  1  0.47802600  0.49676800  0.38284400  1
  H  167  1  0.54361300  0.52933100  0.37762600  1
  H  168  1  0.66368200  0.64922300  0.37759700  1
  H  169  1  0.69633900  0.71480400  0.38266700  1
  H  170  1  0.60624100  0.70762100  0.41856500  1
  H  171  1  0.48562200  0.58695000  0.41883000  1
  H  172  1  0.55125700  0.64171800  0.36770200  1
  H  173  1  0.49300900  0.69922600  0.36800300  1
  H  174  1  0.49326300  0.69923600  0.40894200  1
  H  175  1  0.58638800  0.60757100  0.44471900  1
  H  176  1  0.52752000  0.66651900  0.48350800  1
  H  177  1  0.55596300  0.63946100  0.50528500  1
  H  180  1  0.60723400  0.58575300  0.39689500  1
  H  181  1  0.59592900  0.59702500  0.37004400  1
  H  183  1  0.53525300  0.69994400  0.44359700  1
  H  184  1  0.49302200  0.65760500  0.44363600  1
  H  213  1  0.20856400  0.71293200  0.38277000  1
  H  214  1  0.17548100  0.64732600  0.37761200  1
  H  215  1  0.17528100  0.52724100  0.37760200  1
  H  216  1  0.20823900  0.49460300  0.38263700  1
  H  217  1  0.29116000  0.58469200  0.41852600  1
  H  218  1  0.29113800  0.70532400  0.41877200  1
  H  219  1  0.28022700  0.63966400  0.36768300  1
  H  220  1  0.39598400  0.69791600  0.36798400  1
  H  221  1  0.39573900  0.69766000  0.40892500  1
  H  222  1  0.21094800  0.60456400  0.44470000  1
  H  223  1  0.32876200  0.66343200  0.48348900  1
  H  224  1  0.27326200  0.63500600  0.50526700  1
  H  227  1  0.16827900  0.58370500  0.39690400  1
  H  228  1  0.19082600  0.59499100  0.37004200  1
  H  230  1  0.35445300  0.65567400  0.44358100  1
  H  231  1  0.35435200  0.69790900  0.44361500  1
  H  260  1  0.69410600  0.98239100  0.38277200  1
  H  261  1  0.66158900  0.01547600  0.37760000  1
  H  262  1  0.54172000  0.01570600  0.37759200  1
  H  263  1  0.47614200  0.98282200  0.38271200  1
  H  264  1  0.48331400  0.89992000  0.41861300  1
  H  265  1  0.60391800  0.89983400  0.41878100  1
  H  266  1  0.54914600  0.91076300  0.36770000  1
  H  267  1  0.49160000  0.79500700  0.36801200  1
  H  268  1  0.49160500  0.79526000  0.40895100  1
  H  269  1  0.58341900  0.98005500  0.44471500  1
  H  270  1  0.52441500  0.86224600  0.48351100  1
  H  271  1  0.55153200  0.91775100  0.50528500  1
  H  274  1  0.60519900  0.02271100  0.39688000  1
  H  275  1  0.59389800  0.00012200  0.37003000  1
  H  277  1  0.49095300  0.83656600  0.44361200  1
  H  278  1  0.53327200  0.83663400  0.44363100  1
  H  307  1  0.20952700  0.49561000  0.17419800  1
  H  308  1  0.17594100  0.52761700  0.17936800  1
  H  309  1  0.17443700  0.64688600  0.17947800  1
  H  310  1  0.20681900  0.71250100  0.17445100  1
  H  311  1  0.29060300  0.70643100  0.13888400  1
  H  312  1  0.29200600  0.58652500  0.13865800  1
  H  313  1  0.28012500  0.64056000  0.18993700  1
  H  314  1  0.39591100  0.69939200  0.18962000  1
  H  315  1  0.39583600  0.69957300  0.14882500  1
  H  316  1  0.21137900  0.60570900  0.11251500  1
  H  317  1  0.32951600  0.66571800  0.07411000  1
  H  318  1  0.27421300  0.63714400  0.05215000  1
  H  321  1  0.16829000  0.58378500  0.16014300  1
  H  322  1  0.19058800  0.59507600  0.18708300  1
  H  324  1  0.35457200  0.69989000  0.11411600  1
  H  325  1  0.35502400  0.65783000  0.11403900  1
  H  354  1  0.69537200  0.71510800  0.17421000  1
  H  355  1  0.66334100  0.64950500  0.17937700  1
  H  356  1  0.54407300  0.52875200  0.17945700  1
  H  357  1  0.47845500  0.49552400  0.17442700  1
  H  358  1  0.48453500  0.58542600  0.13891100  1
  H  359  1  0.60448300  0.70672400  0.13867300  1
  H  360  1  0.55043700  0.64081000  0.18995200  1
  H  361  1  0.49163600  0.69779700  0.18964300  1
  H  362  1  0.49145400  0.69754600  0.14884700  1
  H  363  1  0.58524000  0.60688100  0.11252700  1
  H  364  1  0.52526200  0.66504600  0.07412800  1
  H  365  1  0.55381100  0.63829500  0.05216400  1
  H  368  1  0.60716300  0.58570700  0.16014600  1
  H  369  1  0.59589000  0.59672700  0.18709000  1
  H  371  1  0.49110800  0.65595300  0.11414000  1
  H  372  1  0.53317900  0.69845200  0.11405600  1
  H  401  1  0.47581000  0.98144000  0.17415400  1
  H  402  1  0.54139700  0.01501700  0.17933400  1
  H  403  1  0.66214200  0.01649700  0.17950500  1
  H  404  1  0.69537400  0.98409700  0.17451600  1
  H  405  1  0.60555600  0.90032000  0.13893000  1
  H  406  1  0.48422100  0.89890800  0.13867000  1
  H  407  1  0.55014600  0.91080700  0.18995700  1
  H  408  1  0.49320500  0.79501900  0.18965000  1
  H  409  1  0.49347200  0.79508700  0.14885400  1
  H  410  1  0.58405600  0.97953800  0.11253200  1
  H  411  1  0.52594800  0.86139500  0.07413400  1
  H  412  1  0.55268000  0.91669500  0.05217000  1
  H  415  1  0.60521300  0.02264000  0.16012900  1
  H  416  1  0.59419500  0.00036700  0.18708000  1
  H  418  1  0.53505500  0.83634500  0.11414700  1
  H  419  1  0.49254200  0.83589300  0.11406100  1
  H  448  1  0.04430600  0.63250300  0.67414800  1
  H  449  1  0.07788900  0.60049500  0.67930200  1
  H  450  1  0.07938700  0.48123700  0.67943700  1
  H  451  1  0.04701400  0.41561200  0.67442300  1
  H  452  1  0.96318400  0.42164900  0.63887900  1
  H  453  1  0.96174100  0.54155400  0.63867900  1
  H  454  1  0.97365200  0.48750000  0.68992700  1
  H  455  1  0.85786600  0.42864800  0.68961300  1
  H  456  1  0.85794200  0.42847600  0.64881500  1
  H  457  1  0.04240400  0.52238700  0.61251000  1
  H  458  1  0.92427300  0.46237300  0.57409900  1
  H  459  1  0.97957800  0.49096200  0.55214200  1
  H  462  1  0.08549400  0.54430100  0.66009600  1
  H  463  1  0.06323000  0.53304100  0.68704800  1
  H  465  1  0.89921400  0.42818400  0.61410300  1
  H  466  1  0.89875400  0.47023900  0.61403300  1
  H  495  1  0.55849800  0.41301200  0.67422800  1
  H  496  1  0.59048800  0.47861100  0.67935000  1
  H  497  1  0.70975000  0.59935000  0.67946800  1
  H  498  1  0.77537700  0.63256500  0.67448800  1
  H  499  1  0.76931000  0.54270400  0.63891700  1
  H  500  1  0.64940200  0.42138800  0.63870700  1
  H  501  1  0.70344000  0.48734800  0.68994500  1
  H  502  1  0.76227300  0.43039100  0.68963100  1
  H  503  1  0.76244500  0.43063500  0.64883400  1
  H  504  1  0.66858100  0.52123000  0.61252400  1
  H  505  1  0.72858000  0.46309400  0.57411800  1
  H  506  1  0.70000900  0.48982600  0.55215800  1
  H  509  1  0.64666900  0.54241200  0.66011800  1
  H  510  1  0.65793800  0.53140800  0.68706900  1
  H  512  1  0.76275500  0.47220900  0.61412300  1
  H  513  1  0.72069400  0.42969900  0.61405000  1
  H  542  1  0.77801100  0.14668300  0.67417200  1
  H  543  1  0.71241900  0.11309500  0.67932600  1
  H  544  1  0.59165600  0.11160800  0.67945600  1
  H  545  1  0.55844800  0.14401600  0.67448300  1
  H  546  1  0.64831500  0.22784200  0.63893800  1
  H  547  1  0.76962200  0.22922800  0.63868400  1
  H  548  1  0.70368000  0.21731800  0.68994800  1
  H  549  1  0.76063600  0.33310500  0.68964200  1
  H  550  1  0.76039100  0.33303900  0.64884400  1
  H  551  1  0.66978500  0.14858600  0.61252600  1
  H  552  1  0.72791300  0.26672400  0.57412300  1
  H  553  1  0.70117900  0.21142200  0.55216300  1
  H  556  1  0.64861900  0.10548600  0.66011600  1
  H  557  1  0.65961000  0.12775400  0.68706700  1
  H  559  1  0.71881000  0.29178300  0.61413500  1
  H  560  1  0.76131700  0.29222400  0.61405300  1
  H  571  1  0.50565400  0.27853000  0.88027800  1
  H  572  1  0.60924100  0.27980900  0.91642900  1
  H  574  1  0.53707400  0.34703900  0.88845100  1
  H  576  1  0.53972100  0.19220000  0.88864800  1
  H  583  1  0.96276800  0.68547300  0.88046600  1
  H  584  1  0.86028800  0.58151000  0.91620900  1
  H  586  1  0.99972800  0.65384900  0.88836900  1
  H  588  1  0.84226900  0.65125600  0.88869600  1
  H  595  1  0.91239800  0.22831900  0.88022200  1
  H  596  1  0.91117200  0.33055300  0.91652200  1
  H  598  1  0.84390700  0.19123500  0.88840200  1
  H  600  1  0.99877200  0.34868200  0.88870700  1
  H  607  1  0.74824900  0.84959900  0.38039500  1
  H  608  1  0.64451500  0.84823400  0.41639100  1
  H  610  1  0.71669900  0.78105100  0.38840300  1
  H  612  1  0.71415300  0.93594100  0.38877500  1
  H  619  1  0.29121000  0.44284500  0.38017800  1
  H  620  1  0.39338500  0.54619100  0.41660500  1
  H  622  1  0.25412800  0.47425200  0.38836400  1
  H  624  1  0.41154600  0.47677500  0.38874200  1
  H  631  1  0.34128400  0.89998400  0.38062600  1
  H  632  1  0.34285100  0.79742800  0.41619100  1
  H  634  1  0.40989900  0.93694200  0.38849700  1
  H  636  1  0.25503000  0.77945200  0.38878300  1
  H  643  1  0.28924000  0.84773600  0.17675200  1
  H  644  1  0.39197500  0.84686800  0.14091600  1
  H  646  1  0.25250700  0.77908700  0.16880100  1
  H  648  1  0.40949200  0.93455700  0.16830100  1
  H  655  1  0.34315800  0.44258600  0.17658000  1
  H  656  1  0.34420500  0.54652600  0.14111400  1
  H  658  1  0.41186900  0.47468600  0.16886600  1
  H  660  1  0.25638400  0.47612400  0.16823600  1
  H  667  1  0.74828900  0.90171100  0.17673200  1
  H  668  1  0.64451300  0.79888900  0.14108900  1
  H  670  1  0.71634100  0.93843500  0.16881500  1
  H  672  1  0.71484100  0.78145400  0.16831200  1
  H  679  1  0.96453300  0.28043500  0.67693300  1
  H  680  1  0.86193400  0.28117200  0.64080100  1
  H  682  1  0.00123500  0.34905000  0.66897600  1
  H  684  1  0.84430300  0.19359000  0.66840000  1
  H  691  1  0.91056900  0.68526900  0.67694100  1
  H  692  1  0.90982600  0.58195100  0.64077800  1
  H  694  1  0.84197700  0.65346300  0.66886300  1
  H  696  1  0.99742000  0.65193200  0.66834700  1
  H  703  1  0.50562500  0.22643100  0.67686800  1
  H  704  1  0.60914900  0.32912800  0.64094600  1
  H  706  1  0.53757200  0.18973900  0.66894200  1
  H  708  1  0.53904900  0.34669600  0.66837700  1
  H  715  1  0.69957300  0.49063000  0.78730200  1
  H  716  1  0.76462300  0.42618500  0.77033500  1
  H  718  1  0.70778000  0.48195400  0.82854200  1
  H  720  1  0.75646500  0.43486800  0.72910000  1
  H  727  1  0.98079900  0.49132300  0.78728500  1
  H  728  1  0.85130600  0.42643200  0.77031600  1
  H  730  1  0.96391400  0.48315500  0.82852700  1
  H  732  1  0.86814600  0.43454600  0.72908100  1
  H  739  1  0.70032600  0.21014800  0.78730400  1
  H  740  1  0.76487300  0.33964600  0.77034700  1
  H  742  1  0.70900600  0.22702100  0.82854800  1
  H  744  1  0.75618800  0.32281400  0.72911000  1
  H  751  1  0.55423700  0.63747800  0.28732000  1
  H  752  1  0.48931400  0.70204400  0.27033800  1
  H  754  1  0.54602600  0.64616100  0.32855900  1
  H  756  1  0.49747200  0.69335100  0.22910600  1
  H  763  1  0.27300300  0.63669200  0.28730300  1
  H  764  1  0.40249000  0.70170200  0.27031700  1
  H  766  1  0.28990100  0.64489800  0.32854200  1
  H  768  1  0.38563700  0.69355200  0.22908500  1
  H  775  1  0.55346500  0.91796200  0.28731700  1
  H  776  1  0.48884100  0.78846600  0.27035000  1
  H  778  1  0.54475300  0.90107900  0.32855900  1
  H  780  1  0.49757900  0.80530400  0.22911600  1
  H  787  1  0.67641700  0.56775300  0.05047300  1
  H  788  1  0.57589000  0.55982500  0.00667400  1
  H  790  1  0.68925700  0.53775800  0.01818000  1
  H  792  1  0.56304600  0.58981000  0.03899100  1
  H  799  1  0.08107300  0.51449200  0.05045800  1
  H  800  1  0.17365400  0.61504600  0.00666700  1
  H  802  1  0.03822900  0.50166000  0.01817000  1
  H  804  1  0.21648600  0.62789100  0.03897900  1
  H  811  1  0.62318400  0.10984200  0.05047500  1
  H  812  1  0.63113400  0.01725100  0.00668200  1
  H  814  1  0.65318300  0.15268100  0.01818500  1
  H  816  1  0.60115400  0.97442300  0.03899800  1
  H  823  1  0.57736100  0.56032600  0.55048400  1
  H  824  1  0.67789400  0.56828800  0.50667600  1
  H  826  1  0.56451300  0.59032900  0.51820000  1
  H  828  1  0.69074600  0.53829600  0.53898500  1
  H  835  1  0.17273500  0.61360400  0.55047100  1
  H  836  1  0.08014800  0.51308800  0.50665900  1
  H  838  1  0.21558100  0.62645200  0.51818300  1
  H  840  1  0.03731200  0.50022800  0.53897100  1
  H  847  1  0.63070300  0.01828100  0.55047800  1
  H  848  1  0.62270700  0.11084500  0.50668100  1
  H  850  1  0.60070200  0.97543200  0.51818900  1
  H  852  1  0.65270500  0.15368800  0.53898800  1
  H  877  1  0.13139700  0.24936200  0.83138100  1
  H  878  1  0.06580700  0.21685400  0.82619900  1
  H  879  1  0.94574580  0.09699980  0.82618800  1
  H  880  1  0.91307380  0.03141080  0.83128000  1
  H  881  1  0.00311100  0.03861110  0.86724500  1
  H  882  1  0.12374900  0.15926010  0.86748700  1
  H  883  1  0.05815700  0.10454610  0.81636400  1
  H  884  1  0.11640400  0.04703900  0.81667200  1
  H  885  1  0.11611900  0.04700500  0.85761200  1
  H  886  1  0.02297600  0.13865400  0.89338100  1
  H  887  1  0.08181800  0.07968100  0.93217220  1
  H  888  1  0.05337400  0.10673810  0.95394920  1
  H  891  1  0.00214900  0.16047200  0.84550700  1
  H  892  1  0.01349700  0.14919700  0.81866900  1
  H  894  1  0.07410400  0.04627300  0.89225600  1
  H  895  1  0.11633600  0.08861300  0.89230900  1
  H  924  1  0.40083400  0.03327900  0.83145900  1
  H  925  1  0.43388900  0.09886200  0.82625200  1
  H  926  1  0.43410500  0.21893600  0.82620200  1
  H  927  1  0.40123300  0.25164900  0.83132100  1
  H  928  1  0.31834200  0.16159300  0.86725400  1
  H  929  1  0.31828300  0.04091600  0.86746600  1
  H  930  1  0.32918900  0.10656200  0.81634900  1
  H  931  1  0.21343400  0.04835100  0.81665300  1
  H  932  1  0.21368000  0.04861900  0.85759300  1
  H  933  1  0.39847200  0.14166900  0.89336800  1
  H  934  1  0.28065100  0.08284700  0.93215620  1
  H  935  1  0.33615100  0.11126700  0.95393320  1
  H  938  1  0.44112800  0.16250700  0.84551400  1
  H  939  1  0.41852000  0.15116800  0.81867100  1
  H  941  1  0.25497300  0.09060100  0.89224500  1
  H  942  1  0.25505700  0.04835700  0.89228400  1
  H  971  1  0.91527480  0.76382480  0.83144200  1
  H  972  1  0.94780280  0.73076480  0.82625000  1
  H  973  1  0.06766700  0.73057600  0.82621400  1
  H  974  1  0.13325900  0.76350200  0.83128000  1
  H  975  1  0.12606900  0.84637000  0.86723300  1
  H  976  1  0.00542300  0.84635000  0.86749200  1
  H  977  1  0.06014900  0.83546600  0.81637000  1
  H  978  1  0.11766700  0.95122200  0.81668100  1
  H  979  1  0.11769000  0.95097000  0.85762100  1
  H  980  1  0.02602600  0.76617500  0.89338600  1
  H  981  1  0.08499300  0.88398900  0.93218020  1
  H  982  1  0.05793200  0.82848700  0.95395620  1
  H  985  1  0.00420800  0.72352500  0.84553100  1
  H  986  1  0.01547200  0.74613500  0.81868900  1
  H  988  1  0.11840900  0.90968300  0.89226500  1
  H  989  1  0.07606900  0.90957700  0.89231500  1
  H  1018  1  0.83362100  0.11489900  0.33152200  1
  H  1019  1  0.89920800  0.14746200  0.32630400  1
  H  1020  1  0.01927700  0.26735400  0.32627500  1
  H  1021  1  0.05193400  0.33293500  0.33134500  1
  H  1022  1  0.96183580  0.32575180  0.36724300  1
  H  1023  1  0.84121700  0.20508100  0.36750800  1
  H  1024  1  0.90685180  0.25984880  0.31638000  1
  H  1025  1  0.84860400  0.31735700  0.31668100  1
  H  1026  1  0.84885800  0.31736700  0.35762000  1
  H  1027  1  0.94198280  0.22570180  0.39339700  1
  H  1028  1  0.88311500  0.28465000  0.43218600  1
  H  1029  1  0.91155780  0.25759180  0.45396300  1
  H  1032  1  0.96282880  0.20388380  0.34557300  1
  H  1033  1  0.95152380  0.21515580  0.31872200  1
  H  1035  1  0.89084800  0.31807500  0.39227500  1
  H  1036  1  0.84861700  0.27573600  0.39231400  1
  H  1065  1  0.56415900  0.33106300  0.33144800  1
  H  1066  1  0.53107600  0.26545700  0.32629000  1
  H  1067  1  0.53087600  0.14537200  0.32628000  1
  H  1068  1  0.56383400  0.11273400  0.33131500  1
  H  1069  1  0.64675500  0.20282300  0.36720400  1
  H  1070  1  0.64673300  0.32345500  0.36745000  1
  H  1071  1  0.63582200  0.25779500  0.31636100  1
  H  1072  1  0.75157900  0.31604700  0.31666200  1
  H  1073  1  0.75133400  0.31579100  0.35760300  1
  H  1074  1  0.56654300  0.22269500  0.39337800  1
  H  1075  1  0.68435700  0.28156300  0.43216700  1
  H  1076  1  0.62885700  0.25313700  0.45394500  1
  H  1079  1  0.52387400  0.20183600  0.34558200  1
  H  1080  1  0.54642100  0.21308767  0.31872000  1
  H  1082  1  0.71004800  0.27380500  0.39225900  1
  H  1083  1  0.70994700  0.31604000  0.39229300  1
  H  1112  1  0.04970100  0.60052200  0.33145000  1
  H  1113  1  0.01718400  0.63360700  0.32627800  1
  H  1114  1  0.89731500  0.63383700  0.32627000  1
  H  1115  1  0.83173700  0.60095300  0.33139000  1
  H  1116  1  0.83890900  0.51805100  0.36729100  1
  H  1117  1  0.95951280  0.51796480  0.36745900  1
  H  1118  1  0.90474080  0.52889380  0.31637800  1
  H  1119  1  0.84719500  0.41313800  0.31669000  1
  H  1120  1  0.84720000  0.41339100  0.35762900  1
  H  1121  1  0.93901380  0.59818580  0.39339300  1
  H  1122  1  0.88001000  0.48037700  0.43218900  1
  H  1123  1  0.90712680  0.53588180  0.45396300  1
  H  1126  1  0.96079380  0.64084180  0.34555800  1
  H  1127  1  0.94949280  0.61825280  0.31870800  1
  H  1129  1  0.84654800  0.45469700  0.39229000  1
  H  1130  1  0.88886700  0.45476500  0.39230900  1
  H  1159  1  0.56512200  0.11374100  0.12287600  1
  H  1160  1  0.53153600  0.14574800  0.12804600  1
  H  1161  1  0.53003200  0.26501700  0.12815600  1
  H  1162  1  0.56241400  0.33063200  0.12312900  1
  H  1163  1  0.64619800  0.32456200  0.08756200  1
  H  1164  1  0.64760100  0.20465600  0.08733600  1
  H  1165  1  0.63572000  0.25869100  0.13861500  1
  H  1166  1  0.75150600  0.31752300  0.13829800  1
  H  1167  1  0.75143100  0.31770400  0.09750300  1
  H  1168  1  0.56697400  0.22384000  0.06119300  1
  H  1169  1  0.68511100  0.28384900  0.02278800  1
  H  1170  1  0.62980800  0.25527500  0.00082800  1
  H  1173  1  0.52388500  0.20191600  0.10882100  1
  H  1174  1  0.54618300  0.21320700  0.13576100  1
  H  1176  1  0.71016700  0.31802100  0.06279400  1
  H  1177  1  0.71061900  0.27596100  0.06271700  1
  H  1206  1  0.05096700  0.33323900  0.12288800  1
  H  1207  1  0.01893600  0.26763600  0.12805500  1
  H  1208  1  0.89966800  0.14688300  0.12813500  1
  H  1209  1  0.83405000  0.11365500  0.12310500  1
  H  1210  1  0.84013000  0.20355700  0.08758900  1
  H  1211  1  0.96007780  0.32485480  0.08735100  1
  H  1212  1  0.90603180  0.25894080  0.13863000  1
  H  1213  1  0.84723100  0.31592800  0.13832100  1
  H  1214  1  0.84704900  0.31567700  0.09752500  1
  H  1215  1  0.94083480  0.22501180  0.06120500  1
  H  1216  1  0.88085700  0.28317700  0.02280600  1
  H  1217  1  0.90940580  0.25642580  0.00084200  1
  H  1220  1  0.96275780  0.20383780  0.10882400  1
  H  1221  1  0.95148480  0.21485780  0.13576800  1
  H  1223  1  0.84670300  0.27408400  0.06281800  1
  H  1224  1  0.88877400  0.31658300  0.06273400  1
  H  1253  1  0.83140500  0.59957100  0.12283200  1
  H  1254  1  0.89699200  0.63314800  0.12801200  1
  H  1255  1  0.01773700  0.63462800  0.12818300  1
  H  1256  1  0.05096900  0.60222800  0.12319400  1
  H  1257  1  0.96115080  0.51845080  0.08760800  1
  H  1258  1  0.83981600  0.51703900  0.08734800  1
  H  1259  1  0.90574080  0.52893780  0.13863500  1
  H  1260  1  0.84880000  0.41315000  0.13832800  1
  H  1261  1  0.84906700  0.41321800  0.09753200  1
  H  1262  1  0.93965080  0.59766880  0.06121000  1
  H  1263  1  0.88154300  0.47952600  0.02281200  1
  H  1264  1  0.90827480  0.53482580  0.00084800  1
  H  1267  1  0.96080780  0.64077080  0.10880700  1
  H  1268  1  0.94978980  0.61849780  0.13575800  1
  H  1270  1  0.89065000  0.45447600  0.06282500  1
  H  1271  1  0.84813700  0.45402400  0.06273900  1
  H  1300  1  0.39990100  0.25063400  0.62282600  1
  H  1301  1  0.43348400  0.21862600  0.62798000  1
  H  1302  1  0.43498200  0.09936800  0.62811500  1
  H  1303  1  0.40260900  0.03374300  0.62310100  1
  H  1304  1  0.31877900  0.03978000  0.58755700  1
  H  1305  1  0.31733600  0.15968500  0.58735700  1
  H  1306  1  0.32924700  0.10563100  0.63860500  1
  H  1307  1  0.21346100  0.04677900  0.63829100  1
  H  1308  1  0.21353700  0.04660700  0.59749300  1
  H  1309  1  0.39799900  0.14051800  0.56118800  1
  H  1310  1  0.27986800  0.08050400  0.52277700  1
  H  1311  1  0.33517300  0.10909300  0.50082000  1
  H  1314  1  0.44108900  0.16243200  0.60877400  1
  H  1315  1  0.41882500  0.15117200  0.63572600  1
  H  1317  1  0.25480900  0.04631500  0.56278100  1
  H  1318  1  0.25434900  0.08837000  0.56271100  1
  H  1347  1  0.91409280  0.03114280  0.62290600  1
  H  1348  1  0.94608280  0.09674180  0.62802800  1
  H  1349  1  0.06534500  0.21748100  0.62814600  1
  H  1350  1  0.13097200  0.25069600  0.62316600  1
  H  1351  1  0.12490500  0.16083510  0.58759500  1
  H  1352  1  0.00499700  0.03951910  0.58738500  1
  H  1353  1  0.05903500  0.10547910  0.63862300  1
  H  1354  1  0.11786800  0.04852200  0.63830900  1
  H  1355  1  0.11804000  0.04876600  0.59751200  1
  H  1356  1  0.02417600  0.13936100  0.56120200  1
  H  1357  1  0.08417500  0.08122500  0.52279600  1
  H  1358  1  0.05560400  0.10795710  0.50083600  1
  H  1361  1  0.00226400  0.16054300  0.60879600  1
  H  1362  1  0.01353300  0.14953900  0.63574700  1
  H  1364  1  0.11835000  0.09034000  0.56280100  1
  H  1365  1  0.07628900  0.04783000  0.56272800  1
  H  1394  1  0.13360600  0.76481400  0.62285000  1
  H  1395  1  0.06801400  0.73122600  0.62800400  1
  H  1396  1  0.94725080  0.72973880  0.62813400  1
  H  1397  1  0.91404280  0.76214680  0.62316100  1
  H  1398  1  0.00391000  0.84597300  0.58761600  1
  H  1399  1  0.12521700  0.84735900  0.58736200  1
  H  1400  1  0.05927500  0.83544900  0.63862600  1
  H  1401  1  0.11623100  0.95123600  0.63832000  1
  H  1402  1  0.11598600  0.95117000  0.59752200  1
  H  1403  1  0.02538000  0.76671700  0.56120400  1
  H  1404  1  0.08350800  0.88485500  0.52280100  1
  H  1405  1  0.05677400  0.82955300  0.50084100  1
  H  1408  1  0.00421400  0.72361700  0.60879400  1
  H  1409  1  0.01520500  0.74588500  0.63574500  1
  H  1411  1  0.07440500  0.90991400  0.56281300  1
  H  1412  1  0.11691200  0.91035500  0.56273100  1
  H  1423  1  0.86124900  0.89666110  0.82895600  1
  H  1424  1  0.96483580  0.89793980  0.86510700  1
  H  1426  1  0.89266900  0.96517010  0.83712900  1
  H  1428  1  0.89531600  0.81033100  0.83732600  1
  H  1435  1  0.31836300  0.30360400  0.82914400  1
  H  1436  1  0.21588300  0.19964100  0.86488700  1
  H  1438  1  0.35532300  0.27198000  0.83704700  1
  H  1440  1  0.19786400  0.26938710  0.83737400  1
  H  1447  1  0.26799300  0.84645000  0.82890000  1
  H  1448  1  0.26676700  0.94868400  0.86520000  1
  H  1450  1  0.19950200  0.80936600  0.83708000  1
  H  1452  1  0.35436700  0.96681300  0.83738500  1
  H  1459  1  0.10384400  0.46773000  0.32907300  1
  H  1460  1  0.00011000  0.46636500  0.36506900  1
  H  1462  1  0.07229400  0.39918200  0.33708100  1
  H  1464  1  0.06974800  0.55407200  0.33745300  1
  H  1471  1  0.64680500  0.06097600  0.32885600  1
  H  1472  1  0.74898000  0.16432200  0.36528300  1
  H  1474  1  0.60972300  0.09238300  0.33704200  1
  H  1476  1  0.76714100  0.09490600  0.33742000  1
  H  1483  1  0.69687900  0.51811500  0.32930400  1
  H  1484  1  0.69844600  0.41555900  0.36486900  1
  H  1486  1  0.76549400  0.55507300  0.33717500  1
  H  1488  1  0.61062500  0.39758300  0.33746100  1
  H  1495  1  0.64483500  0.46586700  0.12543000  1
  H  1496  1  0.74757000  0.46499900  0.08959400  1
  H  1498  1  0.60810200  0.39721800  0.11747900  1
  H  1500  1  0.76508700  0.55268800  0.11697900  1
  H  1507  1  0.69875300  0.06071700  0.12525800  1
  H  1508  1  0.69980000  0.16465700  0.08979200  1
  H  1510  1  0.76746400  0.09281700  0.11754400  1
  H  1512  1  0.61197900  0.09425500  0.11691400  1
  H  1519  1  0.10388400  0.51984200  0.12541000  1
  H  1520  1  0.00010800  0.41702000  0.08976700  1
  H  1522  1  0.07193600  0.55656600  0.11749300  1
  H  1524  1  0.07043600  0.39958500  0.11699000  1
  H  1531  1  0.32012800  0.89856600  0.62561100  1
  H  1532  1  0.21752900  0.89930300  0.58947900  1
  H  1534  1  0.35683000  0.96718100  0.61765400  1
  H  1536  1  0.19989800  0.81172100  0.61707800  1
  H  1543  1  0.26616400  0.30340010  0.62561900  1
  H  1544  1  0.26542100  0.20008200  0.58945600  1
  H  1546  1  0.19757200  0.27159410  0.61754100  1
  H  1548  1  0.35301500  0.27006300  0.61702500  1
  H  1555  1  0.86122000  0.84456200  0.62554600  1
  H  1556  1  0.96474380  0.94725880  0.58962400  1
  H  1558  1  0.89316700  0.80787000  0.61762000  1
  H  1560  1  0.89464400  0.96482710  0.61705500  1
  H  1567  1  0.05516800  0.10876110  0.73598000  1
  H  1568  1  0.12021800  0.04431600  0.71901300  1
  H  1570  1  0.06337500  0.10008510  0.77722000  1
  H  1572  1  0.11206000  0.05299900  0.67777800  1
  H  1579  1  0.33639400  0.10945400  0.73596300  1
  H  1580  1  0.20690100  0.04456300  0.71899400  1
  H  1582  1  0.31950900  0.10128600  0.77720500  1
  H  1584  1  0.22374100  0.05267700  0.67775900  1
  H  1591  1  0.05592100  0.82827900  0.73598200  1
  H  1592  1  0.12046800  0.95777700  0.71902500  1
  H  1594  1  0.06460100  0.84515200  0.77722600  1
  H  1596  1  0.11178300  0.94094500  0.67778800  1
  H  1603  1  0.90983180  0.25560880  0.23599800  1
  H  1604  1  0.84490900  0.32017500  0.21901600  1
  H  1606  1  0.90162080  0.26429180  0.27723700  1
  H  1608  1  0.85306700  0.31148200  0.17778400  1
  H  1615  1  0.62859800  0.25482300  0.23598100  1
  H  1616  1  0.75808500  0.31983300  0.21899500  1
  H  1618  1  0.64549600  0.26302900  0.27722000  1
  H  1620  1  0.74123200  0.31168300  0.17776300  1
  H  1627  1  0.90905980  0.53609280  0.23599500  1
  H  1628  1  0.84443600  0.40659700  0.21902800  1
  H  1630  1  0.90034780  0.51920980  0.27723700  1
  H  1632  1  0.85317400  0.42343500  0.17779400  1
  H  1639  1  0.03201200  0.18588400  0.99915121  1
  H  1640  1  0.93148480  0.17795580  0.95535220  1
  H  1642  1  0.04485200  0.15588900  0.96685820  1
  H  1644  1  0.91864080  0.20794080  0.98766920  1
  H  1651  1  0.43666800  0.13262300  0.99913621  1
  H  1652  1  0.52924900  0.23317700  0.95534520  1
  H  1654  1  0.39382400  0.11979100  0.96684820  1
  H  1656  1  0.57208100  0.24602200  0.98765720  1
  H  1663  1  0.97877880  0.72797280  0.99915321  1
  H  1664  1  0.98672880  0.63538180  0.95536020  1
  H  1666  1  0.00877800  0.77081200  0.96686320  1
  H  1668  1  0.95674880  0.59255380  0.98767620  1
  H  1675  1  0.93295580  0.17845680  0.49916200  1
  H  1676  1  0.03348900  0.18641900  0.45535400  1
  H  1678  1  0.92010780  0.20845980  0.46687800  1
  H  1680  1  0.04634100  0.15642700  0.48766300  1
  H  1687  1  0.52833000  0.23173500  0.49914900  1
  H  1688  1  0.43574300  0.13121900  0.45533700  1
  H  1690  1  0.57117600  0.24458300  0.46686100  1
  H  1692  1  0.39290700  0.11835900  0.48764900  1
  H  1699  1  0.98629780  0.63641180  0.49915600  1
  H  1700  1  0.97830180  0.72897580  0.45535900  1
  H  1702  1  0.95629680  0.59356280  0.46686700  1
  H  1704  1  0.00830000  0.77181900  0.48766600  1
  C  1  1  0.69665700  0.49191900  0.93934500  1
  C  2  1  0.71397100  0.47477100  0.95080400  1
  C  3  1  0.73123100  0.45776900  0.91284700  1
  C  4  1  0.71421400  0.47464200  0.90079400  1
  C  5  1  0.71476600  0.47426800  0.87643100  1
  C  6  1  0.73163100  0.45773400  0.86395100  1
  C  7  1  0.74829700  0.44117200  0.87640000  1
  C  8  1  0.74811400  0.44116500  0.90045300  1
  C  9  1  0.71415500  0.47415500  0.97498100  1
  C  10  1  0.69763500  0.49035400  0.98782700  1
  C  11  1  0.68061000  0.50810300  0.97695700  1
  C  12  1  0.68005200  0.50815900  0.95277300  1
  C  13  1  0.71696800  0.53288300  0.90665900  1
  C  14  1  0.69994900  0.54966000  0.89448200  1
  C  15  1  0.63917400  0.48892100  0.89442200  1
  C  16  1  0.65587800  0.47177700  0.90654200  1
  C  17  1  0.60237300  0.46707900  0.88671100  1
  C  18  1  0.58302200  0.42856900  0.88976600  1
  C  19  1  0.59951400  0.41116000  0.90155700  1
  C  20  1  0.63516200  0.43320000  0.91048600  1
  C  21  1  0.75550800  0.55355700  0.91073100  1
  C  22  1  0.77765600  0.58912300  0.90172600  1
  C  23  1  0.76040100  0.60572400  0.88989200  1
  C  24  1  0.72189400  0.58647000  0.88679900  1
  C  37  1  0.69587300  0.49283600  0.91347500  1
  C  38  1  0.66004300  0.52885200  0.88851000  1
  C  41  1  0.73189000  0.45701700  0.93825400  1
  C  48  1  0.98499400  0.49427800  0.93933000  1
  C  49  1  0.95053200  0.47697400  0.95078900  1
  C  50  1  0.91627300  0.45975800  0.91283000  1
  C  51  1  0.95016500  0.47677300  0.90077800  1
  C  52  1  0.94924100  0.47623200  0.87641500  1
  C  53  1  0.91584400  0.45938100  0.86393300  1
  C  54  1  0.88261300  0.44272200  0.87638200  1
  C  55  1  0.88278900  0.44289500  0.90043400  1
  C  56  1  0.94973200  0.47677800  0.97496500  1
  C  57  1  0.98244900  0.49328500  0.98781200  1
  C  58  1  0.01722400  0.51030600  0.97694300  1
  C  59  1  0.01783700  0.51086700  0.95276000  1
  C  60  1  0.00563200  0.47397400  0.90663600  1
  C  61  1  0.03944900  0.49098900  0.89448100  1
  C  62  1  0.03950700  0.55177600  0.89441700  1
  C  63  1  0.00565600  0.53508300  0.90653800  1
  C  64  1  0.05449200  0.58858800  0.88672100  1
  C  65  1  0.03536100  0.60796200  0.88979000  1
  C  66  1  0.00146800  0.59148100  0.90158600  1
  C  67  1  0.98783200  0.55582800  0.91051200  1
  C  68  1  0.98773100  0.43542300  0.91067100  1
  C  69  1  0.00118900  0.41328300  0.90171400  1
  C  70  1  0.03510500  0.43054200  0.88994600  1
  C  71  1  0.05433100  0.46904600  0.88682500  1
  C  84  1  0.98669800  0.49508400  0.91346000  1
  C  85  1  0.05856000  0.53089600  0.88851100  1
  C  88  1  0.91485900  0.45908000  0.93823700  1
  C  95  1  0.69903600  0.20592500  0.93935200  1
  C  96  1  0.71618400  0.24038600  0.95081100  1
  C  97  1  0.73319300  0.27465000  0.91285400  1
  C  98  1  0.71632000  0.24075900  0.90080100  1
  C  99  1  0.71670000  0.24168700  0.87643700  1
  C  100  1  0.73324000  0.27508500  0.86395800  1
  C  101  1  0.74980300  0.30831600  0.87640800  1
  C  102  1  0.74980100  0.30813800  0.90046100  1
  C  103  1  0.71679400  0.24118300  0.97498800  1
  C  104  1  0.70058100  0.20846500  0.98783300  1
  C  105  1  0.68284400  0.17369100  0.97696300  1
  C  106  1  0.68279500  0.17308000  0.95277900  1
  C  107  1  0.65807600  0.18527600  0.90666400  1
  C  108  1  0.64129200  0.15146900  0.89449900  1
  C  109  1  0.70203000  0.15143400  0.89443500  1
  C  110  1  0.71918100  0.18528800  0.90655100  1
  C  111  1  0.72387000  0.13646600  0.88672900  1
  C  112  1  0.76237800  0.15561300  0.88978500  1
  C  113  1  0.77978400  0.18955200  0.90153100  1
  C  114  1  0.75776000  0.20314600  0.91050100  1
  C  115  1  0.63740500  0.20314700  0.91073500  1
  C  116  1  0.60184400  0.18972100  0.90172300  1
  C  117  1  0.58521700  0.15584200  0.88991500  1
  C  118  1  0.60447400  0.13659100  0.88682800  1
  C  131  1  0.69812300  0.20422400  0.91348100  1
  C  132  1  0.66209700  0.13236600  0.88852900  1
  C  135  1  0.73394000  0.27606100  0.93826200  1
  C  142  1  0.55710600  0.63617000  0.43935900  1
  C  143  1  0.53978800  0.65331300  0.45081800  1
  C  144  1  0.52255000  0.67033500  0.41286000  1
  C  145  1  0.53957700  0.65347000  0.40080800  1
  C  146  1  0.53904400  0.65386100  0.37644400  1
  C  147  1  0.52218900  0.67040100  0.36396200  1
  C  148  1  0.50551300  0.68695600  0.37640900  1
  C  149  1  0.50567700  0.68694600  0.40046200  1
  C  150  1  0.53958900  0.65391300  0.47499500  1
  C  151  1  0.55610000  0.63770600  0.48784100  1
  C  152  1  0.57314400  0.61997500  0.47697100  1
  C  153  1  0.57370500  0.61992400  0.45278800  1
  C  154  1  0.53681400  0.59522500  0.40666500  1
  C  155  1  0.55384600  0.57844200  0.39451100  1
  C  156  1  0.61462400  0.63917500  0.39446800  1
  C  157  1  0.59790600  0.65632600  0.40656800  1
  C  158  1  0.65145300  0.66100500  0.38680000  1
  C  159  1  0.67079600  0.69952000  0.38983400  1
  C  160  1  0.65422600  0.71693500  0.40153200  1
  C  161  1  0.61862200  0.69490400  0.41051600  1
  C  162  1  0.49826500  0.57455600  0.41070800  1
  C  163  1  0.47613400  0.53893400  0.40178100  1
  C  164  1  0.49340300  0.52233200  0.38996200  1
  C  165  1  0.53190300  0.54163400  0.38682600  1
  C  178  1  0.55790800  0.63526800  0.41348900  1
  C  179  1  0.59376200  0.59924300  0.38855900  1
  C  182  1  0.52187400  0.67107200  0.43826600  1
  C  189  1  0.26882900  0.63383600  0.43934200  1
  C  190  1  0.30329000  0.65115200  0.45080000  1
  C  191  1  0.33755100  0.66837100  0.41284100  1
  C  192  1  0.30365800  0.65134100  0.40078900  1
  C  193  1  0.30458200  0.65187400  0.37642700  1
  C  194  1  0.33797700  0.66873300  0.36394300  1
  C  195  1  0.37120800  0.68540700  0.37639200  1
  C  196  1  0.37103500  0.68524200  0.40044500  1
  C  197  1  0.30408700  0.65135700  0.47497600  1
  C  198  1  0.27137100  0.63486500  0.48782200  1
  C  199  1  0.23659500  0.61781500  0.47695400  1
  C  200  1  0.23598400  0.61724200  0.45276900  1
  C  201  1  0.24818500  0.65412200  0.40664100  1
  C  202  1  0.21436000  0.63709200  0.39449500  1
  C  203  1  0.21431000  0.57631000  0.39445600  1
  C  204  1  0.24817900  0.59302300  0.40655400  1
  C  205  1  0.19933800  0.53950000  0.38675900  1
  C  206  1  0.21848100  0.52013200  0.38982000  1
  C  207  1  0.25247800  0.53671400  0.40150200  1
  C  208  1  0.26603400  0.57230400  0.41051300  1
  C  209  1  0.26609200  0.69268000  0.41066000  1
  C  210  1  0.25263200  0.71480700  0.40168900  1
  C  211  1  0.21873200  0.69754700  0.38990500  1
  C  212  1  0.19950400  0.65904100  0.38680200  1
  C  225  1  0.26712600  0.63302300  0.41347100  1
  C  226  1  0.19523300  0.59717200  0.38855600  1
  C  229  1  0.33896300  0.66905500  0.43824900  1
  C  236  1  0.55477700  0.92217300  0.43935900  1
  C  237  1  0.53762000  0.88771400  0.45082100  1
  C  238  1  0.52053000  0.85344700  0.41286300  1
  C  239  1  0.53740000  0.88733700  0.40081000  1
  C  240  1  0.53699400  0.88640800  0.37644500  1
  C  241  1  0.52044200  0.85301200  0.36396700  1
  C  242  1  0.50387500  0.81978200  0.37641600  1
  C  243  1  0.50389500  0.81996200  0.40046900  1
  C  244  1  0.53703500  0.88692000  0.47499700  1
  C  245  1  0.55326600  0.91964000  0.48784100  1
  C  246  1  0.57103900  0.95441100  0.47696900  1
  C  247  1  0.57105500  0.95502000  0.45278700  1
  C  248  1  0.59568000  0.94279300  0.40664500  1
  C  249  1  0.61247600  0.97661200  0.39449200  1
  C  250  1  0.55176300  0.97669700  0.39446800  1
  C  251  1  0.53461100  0.94284400  0.40658500  1
  C  252  1  0.52992900  0.99167100  0.38677100  1
  C  253  1  0.49142500  0.97254600  0.38985600  1
  C  254  1  0.47401600  0.93864600  0.40164400  1
  C  255  1  0.49604500  0.92502700  0.41058000  1
  C  256  1  0.61632100  0.92487600  0.41066200  1
  C  257  1  0.65191000  0.93832900  0.40169200  1
  C  258  1  0.66855200  0.97222600  0.38990500  1
  C  259  1  0.64927700  0.99145600  0.38679500  1
  C  272  1  0.55564600  0.92387200  0.41348900  1
  C  273  1  0.59169200  0.99574400  0.38854700  1
  C  276  1  0.51981900  0.85203900  0.43827100  1
  C  283  1  0.26920500  0.63531700  0.11806600  1
  C  284  1  0.30375400  0.65296400  0.10671500  1
  C  285  1  0.33768300  0.67004300  0.14477700  1
  C  286  1  0.30370800  0.65271400  0.15673900  1
  C  287  1  0.30450300  0.65299900  0.18111000  1
  C  288  1  0.33770400  0.66978300  0.19366500  1
  C  289  1  0.37114600  0.68684900  0.18129900  1
  C  290  1  0.37108500  0.68695400  0.15725200  1
  C  291  1  0.30476600  0.65339400  0.08254100  1
  C  292  1  0.27216100  0.63679600  0.06958700  1
  C  293  1  0.23729600  0.61943100  0.08034600  1
  C  294  1  0.23648200  0.61863000  0.10452700  1
  C  295  1  0.24863500  0.59417100  0.15068400  1
  C  296  1  0.21468500  0.57701800  0.16269400  1
  C  297  1  0.21394800  0.63740800  0.16276700  1
  C  298  1  0.24791900  0.65489800  0.15078900  1
  C  299  1  0.19857200  0.65892200  0.17039900  1
  C  300  1  0.21739700  0.69744100  0.16737200  1
  C  301  1  0.25139600  0.71516900  0.15570500  1
  C  302  1  0.26546000  0.69346400  0.14687800  1
  C  303  1  0.26686700  0.57383400  0.14665900  1
  C  304  1  0.25354300  0.53815400  0.15544700  1
  C  305  1  0.21957300  0.52120800  0.16715500  1
  C  306  1  0.20004700  0.54018400  0.17026700  1
  C  319  1  0.26728700  0.63423100  0.14393700  1
  C  320  1  0.19516600  0.59744900  0.16858700  1
  C  323  1  0.33931500  0.67097500  0.11937800  1
  C  330  1  0.55565200  0.63511900  0.11808100  1
  C  331  1  0.53801100  0.65202900  0.10673200  1
  C  332  1  0.52096400  0.66890500  0.14479600  1
  C  333  1  0.53828600  0.65225000  0.15675600  1
  C  334  1  0.53800400  0.65275700  0.18112500  1
  C  335  1  0.52122700  0.66918100  0.19368300  1
  C  336  1  0.50417400  0.68557100  0.18132000  1
  C  337  1  0.50406700  0.68540600  0.15727200  1
  C  338  1  0.53757500  0.65260800  0.08255800  1
  C  339  1  0.55416000  0.63659000  0.06960300  1
  C  340  1  0.57152100  0.61908300  0.08035800  1
  C  341  1  0.57232600  0.61907000  0.10453900  1
  C  342  1  0.59680800  0.65568600  0.15069500  1
  C  343  1  0.61395700  0.63887700  0.16269500  1
  C  344  1  0.55355300  0.57776500  0.16277900  1
  C  345  1  0.53606900  0.59426100  0.15080700  1
  C  346  1  0.53203200  0.54086500  0.17039700  1
  C  347  1  0.49351600  0.52117800  0.16737100  1
  C  348  1  0.47579200  0.53749000  0.15574300  1
  C  349  1  0.49749800  0.57324600  0.14690400  1
  C  350  1  0.61717000  0.69424700  0.14664500  1
  C  351  1  0.65284400  0.71659400  0.15545000  1
  C  352  1  0.66978500  0.69955700  0.16715000  1
  C  353  1  0.65080100  0.66105500  0.17025800  1
  C  366  1  0.55674600  0.63429100  0.14395100  1
  C  367  1  0.59351300  0.59892800  0.16859200  1
  C  370  1  0.52002200  0.66959800  0.11939700  1
  C  377  1  0.55583900  0.92171100  0.11808600  1
  C  378  1  0.53894800  0.88716000  0.10673700  1
  C  379  1  0.52208700  0.85323700  0.14480300  1
  C  380  1  0.53872700  0.88721500  0.15676100  1
  C  381  1  0.53821100  0.88642600  0.18113200  1
  C  382  1  0.52179600  0.85322700  0.19369000  1
  C  383  1  0.50542600  0.81978200  0.18132700  1
  C  384  1  0.50559700  0.81984000  0.15727900  1
  C  385  1  0.53837700  0.88614500  0.08256500  1
  C  386  1  0.55438000  0.91875000  0.06960800  1
  C  387  1  0.57187400  0.95361700  0.08036300  1
  C  388  1  0.57187800  0.95443400  0.10454400  1
  C  389  1  0.53525100  0.94228000  0.15069800  1
  C  390  1  0.55205000  0.97625100  0.16268700  1
  C  391  1  0.61317600  0.97698700  0.16278300  1
  C  392  1  0.59669700  0.94300200  0.15081400  1
  C  393  1  0.65006900  0.99237200  0.17041400  1
  C  394  1  0.66974700  0.97352800  0.16742000  1
  C  395  1  0.65348400  0.93952000  0.15576000  1
  C  396  1  0.61772900  0.92546500  0.14691700  1
  C  397  1  0.49668100  0.92403700  0.14668500  1
  C  398  1  0.47431900  0.93735300  0.15547400  1
  C  399  1  0.49136000  0.97138500  0.16711900  1
  C  400  1  0.52986800  0.99093500  0.17021100  1
  C  413  1  0.55666600  0.92363500  0.14395600  1
  C  414  1  0.59199900  0.99577300  0.16858400  1
  C  417  1  0.52139600  0.85160400  0.11940200  1
  C  424  1  0.98457600  0.49277200  0.61806000  1
  C  425  1  0.95002700  0.47511600  0.60670700  1
  C  426  1  0.91609400  0.45801600  0.64476800  1
  C  427  1  0.95006700  0.47534600  0.65673100  1
  C  428  1  0.94927500  0.47505600  0.68110000  1
  C  429  1  0.91607200  0.45826400  0.69365700  1
  C  430  1  0.88263100  0.44119600  0.68129000  1
  C  431  1  0.88269400  0.44109700  0.65724200  1
  C  432  1  0.94902100  0.47469200  0.58253300  1
  C  433  1  0.98162700  0.49130500  0.56958100  1
  C  434  1  0.01649300  0.50867400  0.58034000  1
  C  435  1  0.01730400  0.50946800  0.60452100  1
  C  436  1  0.00512700  0.53389800  0.65068300  1
  C  437  1  0.03910500  0.55107100  0.66266200  1
  C  438  1  0.03984400  0.49068400  0.66274900  1
  C  439  1  0.00586100  0.47318100  0.65077900  1
  C  440  1  0.05525000  0.46918200  0.67036200  1
  C  441  1  0.03641800  0.43066200  0.66735400  1
  C  442  1  0.00238600  0.41292300  0.65572300  1
  C  443  1  0.98834000  0.43461600  0.64685500  1
  C  444  1  0.98687500  0.55422100  0.64668700  1
  C  445  1  0.00018400  0.58988300  0.65550100  1
  C  446  1  0.03425600  0.60691000  0.66709800  1
  C  447  1  0.05379400  0.58793900  0.67018900  1
  C  460  1  0.98648800  0.49384300  0.64392900  1
  C  461  1  0.05863100  0.53064700  0.66855400  1
  C  464  1  0.91446700  0.45709500  0.61936900  1
  C  471  1  0.69818800  0.49300900  0.61807500  1
  C  472  1  0.71583300  0.47610600  0.60672300  1
  C  473  1  0.73291500  0.45925700  0.64478700  1
  C  474  1  0.71559000  0.47590700  0.65674800  1
  C  475  1  0.71587800  0.47540400  0.68111700  1
  C  476  1  0.73266800  0.45899400  0.69367400  1
  C  477  1  0.74972900  0.44261200  0.68130900  1
  C  478  1  0.74982700  0.44277100  0.65726100  1
  C  479  1  0.71626400  0.47552600  0.58255000  1
  C  480  1  0.69967300  0.49154000  0.56959700  1
  C  481  1  0.68229900  0.50903400  0.58035400  1
  C  482  1  0.68149900  0.50904400  0.60453500  1
  C  483  1  0.65704900  0.47243500  0.65069500  1
  C  484  1  0.63989000  0.48924800  0.66268200  1
  C  485  1  0.70028400  0.55037000  0.66276100  1
  C  486  1  0.71778000  0.53388000  0.65079500  1
  C  487  1  0.72179600  0.58726800  0.67038200  1
  C  488  1  0.76031700  0.60695000  0.66737800  1
  C  489  1  0.77804800  0.59063700  0.65576100  1
  C  490  1  0.75634700  0.55490800  0.64688200  1
  C  491  1  0.63671400  0.43386700  0.64667200  1
  C  492  1  0.60109400  0.41151700  0.65554900  1
  C  493  1  0.58409400  0.42855500  0.66718000  1
  C  494  1  0.60303500  0.46707100  0.67022800  1
  C  507  1  0.69710500  0.49384400  0.64394500  1
  C  508  1  0.66032200  0.52920000  0.66857200  1
  C  511  1  0.73384400  0.45855500  0.61938600  1
  C  518  1  0.69800300  0.20641100  0.61807900  1
  C  519  1  0.71490300  0.24096200  0.60672800  1
  C  520  1  0.73176700  0.27488800  0.64479300  1
  C  521  1  0.71511900  0.24091100  0.65675300  1
  C  522  1  0.71562300  0.24169900  0.68112200  1
  C  523  1  0.73203600  0.27489800  0.69368100  1
  C  524  1  0.74841700  0.30834100  0.68131900  1
  C  525  1  0.74825700  0.30828600  0.65727000  1
  C  526  1  0.71547500  0.24197300  0.58255500  1
  C  527  1  0.69946400  0.20936800  0.56960000  1
  C  528  1  0.68197500  0.17450000  0.58035700  1
  C  529  1  0.68196200  0.17368800  0.60453800  1
  C  530  1  0.71858600  0.18584300  0.65069400  1
  C  531  1  0.70177600  0.15187700  0.66268600  1
  C  532  1  0.64065000  0.15113800  0.66276100  1
  C  533  1  0.65714200  0.18513100  0.65080300  1
  C  534  1  0.60373500  0.13572200  0.67035700  1
  C  535  1  0.58407000  0.15458500  0.66738000  1
  C  536  1  0.60041100  0.18867100  0.65580900  1
  C  537  1  0.63611600  0.20267600  0.64689900  1
  C  538  1  0.75715000  0.20406500  0.64665600  1
  C  539  1  0.77951000  0.19077500  0.65548900  1
  C  540  1  0.76246900  0.15675700  0.66714700  1
  C  541  1  0.72396500  0.13722500  0.67024900  1
  C  554  1  0.69717600  0.20449200  0.64394800  1
  C  555  1  0.66182400  0.13234900  0.66857100  1
  C  558  1  0.73246200  0.27652000  0.61939200  1
  C  565  1  0.52749100  0.27906100  0.88845300  1
  C  567  1  0.55850600  0.24600900  0.89876700  1
  C  568  1  0.58658400  0.27863200  0.90903000  1
  C  570  1  0.55602600  0.31183500  0.89817100  1
  C  573  1  0.55733500  0.34548400  0.89623600  1
  C  575  1  0.55992400  0.21370900  0.89669000  1
  C  577  1  0.94140600  0.66352900  0.88852900  1
  C  579  1  0.87728700  0.63240100  0.89872100  1
  C  580  1  0.88180600  0.60426300  0.90891700  1
  C  582  1  0.94562800  0.63494500  0.89818400  1
  C  585  1  0.97801500  0.63370400  0.89630300  1
  C  587  1  0.84356700  0.63096700  0.89662800  1
  C  589  1  0.91187900  0.24960800  0.88843000  1
  C  591  1  0.94494700  0.31365200  0.89879500  1
  C  592  1  0.91233800  0.30908700  0.90909000  1
  C  594  1  0.87911600  0.24535200  0.89817600  1
  C  597  1  0.84545900  0.21302000  0.89622700  1
  C  599  1  0.97724400  0.34737400  0.89672600  1
  C  601  1  0.72636600  0.84904800  0.38852100  1
  C  603  1  0.69530700  0.88207400  0.39879300  1
  C  604  1  0.66722900  0.84944900  0.40905200  1
  C  606  1  0.69782600  0.81626500  0.39822800  1
  C  609  1  0.69652500  0.78261500  0.39630000  1
  C  611  1  0.69383300  0.91433700  0.39668000  1
  C  613  1  0.31248400  0.46462600  0.38841400  1
  C  615  1  0.37650900  0.49556300  0.39882900  1
  C  616  1  0.37193100  0.52358300  0.40914600  1
  C  618  1  0.30821700  0.49311300  0.39818400  1
  C  621  1  0.27589800  0.49445900  0.39621500  1
  C  623  1  0.41023000  0.49698400  0.39676700  1
  C  625  1  0.34188300  0.87860800  0.38865500  1
  C  627  1  0.30892000  0.81446200  0.39878400  1
  C  628  1  0.34159400  0.81896200  0.40894200  1
  C  630  1  0.37470600  0.88281100  0.39826900  1
  C  633  1  0.40833200  0.91520200  0.39638700  1
  C  635  1  0.27665200  0.78073300  0.39666100  1
  C  637  1  0.31064100  0.84728600  0.16865000  1
  C  639  1  0.37473100  0.88056800  0.15839600  1
  C  640  1  0.37040600  0.84795600  0.14825300  1
  C  642  1  0.30661400  0.81452800  0.15904600  1
  C  645  1  0.27436700  0.78079300  0.16098500  1
  C  647  1  0.40834100  0.91300100  0.16042200  1
  C  649  1  0.34365300  0.46453200  0.16857700  1
  C  651  1  0.31041900  0.49543200  0.15842500  1
  C  652  1  0.34306300  0.52377700  0.14834700  1
  C  654  1  0.37643900  0.49331300  0.15903600  1
  C  657  1  0.41016500  0.49476600  0.16095000  1
  C  659  1  0.27800500  0.49663700  0.16046600  1
  C  661  1  0.72640000  0.88029000  0.16866900  1
  C  663  1  0.69554900  0.81617800  0.15846500  1
  C  664  1  0.66720700  0.82047800  0.14838200  1
  C  666  1  0.69761800  0.88429000  0.15912300  1
  C  669  1  0.69612300  0.91653300  0.16107000  1
  C  671  1  0.69438200  0.78257200  0.16047500  1
  C  673  1  0.94315100  0.28086000  0.66878800  1
  C  675  1  0.87910200  0.24753700  0.65844000  1
  C  676  1  0.88348300  0.28009700  0.64818100  1
  C  678  1  0.94722900  0.31357200  0.65907400  1
  C  681  1  0.97948200  0.34731300  0.66099700  1
  C  683  1  0.84547800  0.21512600  0.66047400  1
  C  685  1  0.91014600  0.66348500  0.66876600  1
  C  687  1  0.94346600  0.63275800  0.65840600  1
  C  688  1  0.91088500  0.60455100  0.64818200  1
  C  690  1  0.87742000  0.63482200  0.65908800  1
  C  693  1  0.84366800  0.63329400  0.66105700  1
  C  695  1  0.97588700  0.63156000  0.66042600  1
  C  697  1  0.52747000  0.24783500  0.66876200  1
  C  699  1  0.55825100  0.31191000  0.65847600  1
  C  700  1  0.58648200  0.30755800  0.64827500  1
  C  702  1  0.55615600  0.24378300  0.65910700  1
  C  705  1  0.55766800  0.21154700  0.66105200  1
  C  707  1  0.55948000  0.34553800  0.66053200  1
  C  709  1  0.71347500  0.47684900  0.78402800  1
  C  711  1  0.73768300  0.45318100  0.75571700  1
  C  712  1  0.75071600  0.43996700  0.77360400  1
  C  714  1  0.72651000  0.46363400  0.80191700  1
  C  717  1  0.72116400  0.46864700  0.82478700  1
  C  719  1  0.74305900  0.44815900  0.73285100  1
  C  721  1  0.95311800  0.47745800  0.78401100  1
  C  723  1  0.90524300  0.45329500  0.75569800  1
  C  724  1  0.87899300  0.44030600  0.77358700  1
  C  726  1  0.92686600  0.46446700  0.80190000  1
  C  729  1  0.93722500  0.46981000  0.82477000  1
  C  731  1  0.89484500  0.44791800  0.73283400  1
  C  733  1  0.71412900  0.23782900  0.78403300  1
  C  735  1  0.73784200  0.28571200  0.75572500  1
  C  736  1  0.75107000  0.31195600  0.77361400  1
  C  738  1  0.72735700  0.26407600  0.80192400  1
  C  741  1  0.72232800  0.25371200  0.82479300  1
  C  743  1  0.74287700  0.29611500  0.73286200  1
  C  745  1  0.54036400  0.65128500  0.28404400  1
  C  747  1  0.51621300  0.67500100  0.25572600  1
  C  748  1  0.50319400  0.68823600  0.27361200  1
  C  750  1  0.52734400  0.66452000  0.30192800  1
  C  753  1  0.53266800  0.65949100  0.32480000  1
  C  755  1  0.51085400  0.68003600  0.23286100  1
  C  757  1  0.30068300  0.65058500  0.28402500  1
  C  759  1  0.34854700  0.67477800  0.25570700  1
  C  760  1  0.37480300  0.68780300  0.27359100  1
  C  762  1  0.32694100  0.66361100  0.30191100  1
  C  765  1  0.31658800  0.65826900  0.32478300  1
  C  767  1  0.35893700  0.68015500  0.23284000  1
  C  769  1  0.53964400  0.89027900  0.28404400  1
  C  771  1  0.51592700  0.84240300  0.25573300  1
  C  772  1  0.50266000  0.81615600  0.27362100  1
  C  774  1  0.52637800  0.86403000  0.30193100  1
  C  777  1  0.53139800  0.87439000  0.32480400  1
  C  779  1  0.51090400  0.83200400  0.23286800  1
  C  781  1  0.65515000  0.56586300  0.04085700  1
  C  783  1  0.60436500  0.57699500  0.03858000  1
  C  784  1  0.59716700  0.56173000  0.01628500  1
  C  786  1  0.64794700  0.55058500  0.01856500  1
  C  789  1  0.66901900  0.53690000  0.00882700  1
  C  791  1  0.58325500  0.59061300  0.04834500  1
  C  793  1  0.10044300  0.53576700  0.04084400  1
  C  795  1  0.16235500  0.58657000  0.03857000  1
  C  796  1  0.15428500  0.59376500  0.01627400  1
  C  798  1  0.09236800  0.54297300  0.01855300  1
  C  801  1  0.05761000  0.52189300  0.00881500  1
  C  803  1  0.19708400  0.60767900  0.04833300  1
  C  805  1  0.62507800  0.09046900  0.04086100  1
  C  807  1  0.61395400  0.02855300  0.03858600  1
  C  808  1  0.62922400  0.03662200  0.01629100  1
  C  810  1  0.64035900  0.09854300  0.01857000  1
  C  813  1  0.65404300  0.13330200  0.00883300  1
  C  815  1  0.60034100  0.99382500  0.04835000  1
  C  817  1  0.59863000  0.56222600  0.54086800  1
  C  819  1  0.64942800  0.55111300  0.53858500  1
  C  820  1  0.65661700  0.56637600  0.51628900  1
  C  822  1  0.60582900  0.57750800  0.51857800  1
  C  825  1  0.58474800  0.59118600  0.50884400  1
  C  827  1  0.67054100  0.53749000  0.54834300  1
  C  829  1  0.15336200  0.59234000  0.54085300  1
  C  831  1  0.09144400  0.54155300  0.53856800  1
  C  832  1  0.09951700  0.53436400  0.51627200  1
  C  834  1  0.16144100  0.58514300  0.51855900  1
  C  837  1  0.19620100  0.60621700  0.50882700  1
  C  839  1  0.05671200  0.52043800  0.54832900  1
  C  841  1  0.62879500  0.03764800  0.54086200  1
  C  843  1  0.63989600  0.09955700  0.53858500  1
  C  844  1  0.62462500  0.09147900  0.51629000  1
  C  846  1  0.61350700  0.02956400  0.51857300  1
  C  849  1  0.59983400  0.99480800  0.50883700  1
  C  851  1  0.65351500  0.13428900  0.54834400  1
  C  853  1  0.05225200  0.11005010  0.88802300  1
  C  854  1  0.06956600  0.09290210  0.89948200  1
  C  855  1  0.08682600  0.07590000  0.86152500  1
  C  856  1  0.06980900  0.09277310  0.84947200  1
  C  857  1  0.07036100  0.09239910  0.82510900  1
  C  858  1  0.08722600  0.07586500  0.81262900  1
  C  859  1  0.10389200  0.05930300  0.82507800  1
  C  860  1  0.10370900  0.05929600  0.84913100  1
  C  861  1  0.06975000  0.09228610  0.92365920  1
  C  862  1  0.05323000  0.10848510  0.93650520  1
  C  863  1  0.03620500  0.12623410  0.92563520  1
  C  864  1  0.03564700  0.12629010  0.90145120  1
  C  865  1  0.07256300  0.15101410  0.85533700  1
  C  866  1  0.05554400  0.16779100  0.84316000  1
  C  867  1  0.99476875  0.10705175  0.84310000  1
  C  868  1  0.01147300  0.08990810  0.85522000  1
  C  869  1  0.95796780  0.08520980  0.83538900  1
  C  870  1  0.93861680  0.04669980  0.83844400  1
  C  871  1  0.95510880  0.02929090  0.85023500  1
  C  872  1  0.99075675  0.05133085  0.85916400  1
  C  873  1  0.11110300  0.17168810  0.85940900  1
  C  874  1  0.13325100  0.20725410  0.85040400  1
  C  875  1  0.11599600  0.22385500  0.83857000  1
  C  876  1  0.07748900  0.20460100  0.83547700  1
  C  889  1  0.05146800  0.11096710  0.86215300  1
  C  890  1  0.01563800  0.14698300  0.83718800  1
  C  893  1  0.08748500  0.07514800  0.88693200  1
  C  900  1  0.34058900  0.11240900  0.88800800  1
  C  901  1  0.30612700  0.09510500  0.89946700  1
  C  902  1  0.27186800  0.07788900  0.86150800  1
  C  903  1  0.30576000  0.09490400  0.84945600  1
  C  904  1  0.30483600  0.09436300  0.82509300  1
  C  905  1  0.27143900  0.07751200  0.81261100  1
  C  906  1  0.23820800  0.06085300  0.82506000  1
  C  907  1  0.23838400  0.06102600  0.84911200  1
  C  908  1  0.30532700  0.09490900  0.92364320  1
  C  909  1  0.33804400  0.11141600  0.93649020  1
  C  910  1  0.37281900  0.12843700  0.92562120  1
  C  911  1  0.37343200  0.12899800  0.90143820  1
  C  912  1  0.36122700  0.09210500  0.85531400  1
  C  913  1  0.39504400  0.10912000  0.84315900  1
  C  914  1  0.39510200  0.16990700  0.84309500  1
  C  915  1  0.36125100  0.15321400  0.85521600  1
  C  916  1  0.41008700  0.20671900  0.83539900  1
  C  917  1  0.39095600  0.22609300  0.83846800  1
  C  918  1  0.35706300  0.20961200  0.85026400  1
  C  919  1  0.34342700  0.17395900  0.85919000  1
  C  920  1  0.34332600  0.05355400  0.85934900  1
  C  921  1  0.35678400  0.03141400  0.85039200  1
  C  922  1  0.39070000  0.04867300  0.83862400  1
  C  923  1  0.40992600  0.08717700  0.83550300  1
  C  936  1  0.34229300  0.11321500  0.86213800  1
  C  937  1  0.41415500  0.14902700  0.83718900  1
  C  940  1  0.27045400  0.07721100  0.88691500  1
  C  947  1  0.05463100  0.82405600  0.88803000  1
  C  948  1  0.07177900  0.85851700  0.89948900  1
  C  949  1  0.08878800  0.89278100  0.86153200  1
  C  950  1  0.07191500  0.85889000  0.84947900  1
  C  951  1  0.07229500  0.85981800  0.82511500  1
  C  952  1  0.08883500  0.89321600  0.81263600  1
  C  953  1  0.10539800  0.92644700  0.82508600  1
  C  954  1  0.10539600  0.92626900  0.84913900  1
  C  955  1  0.07238900  0.85931400  0.92366620  1
  C  956  1  0.05617600  0.82659600  0.93651120  1
  C  957  1  0.03843900  0.79182200  0.92564120  1
  C  958  1  0.03839000  0.79121100  0.90145720  1
  C  959  1  0.01367100  0.80340700  0.85534200  1
  C  960  1  0.99688675  0.76959975  0.84317700  1
  C  961  1  0.05762500  0.76956500  0.84311300  1
  C  962  1  0.07477600  0.80341900  0.85522900  1
  C  963  1  0.07946500  0.75459700  0.83540700  1
  C  964  1  0.11797300  0.77374400  0.83846300  1
  C  965  1  0.13537900  0.80768300  0.85020900  1
  C  966  1  0.11335500  0.82127700  0.85917900  1
  C  967  1  0.99299975  0.82127775  0.85941300  1
  C  968  1  0.95743880  0.80785180  0.85040100  1
  C  969  1  0.94081180  0.77397280  0.83859300  1
  C  970  1  0.96006880  0.75472180  0.83550600  1
  C  983  1  0.05371800  0.82235500  0.86215900  1
  C  984  1  0.01769200  0.75049700  0.83720700  1
  C  987  1  0.08953500  0.89419200  0.88694000  1
  C  994  1  0.91270080  0.25430080  0.38803700  1
  C  995  1  0.89538300  0.27144400  0.39949600  1
  C  996  1  0.87814500  0.28846600  0.36153800  1
  C  997  1  0.89517200  0.27160100  0.34948600  1
  C  998  1  0.89463900  0.27199200  0.32512200  1
  C  999  1  0.87778400  0.28853200  0.31264000  1
  C  1000  1  0.86110800  0.30508700  0.32508700  1
  C  1001  1  0.86127200  0.30507700  0.34914000  1
  C  1002  1  0.89518400  0.27204400  0.42367300  1
  C  1003  1  0.91169480  0.25583680  0.43651900  1
  C  1004  1  0.92873880  0.23810580  0.42564900  1
  C  1005  1  0.92929980  0.23805480  0.40146600  1
  C  1006  1  0.89240900  0.21335600  0.35534300  1
  C  1007  1  0.90944080  0.19657280  0.34318900  1
  C  1008  1  0.97021880  0.25730580  0.34314600  1
  C  1009  1  0.95350080  0.27445680  0.35524600  1
  C  1010  1  0.00704800  0.27913600  0.33547800  1
  C  1011  1  0.02639100  0.31765100  0.33851200  1
  C  1012  1  0.00982100  0.33506600  0.35021000  1
  C  1013  1  0.97421680  0.31303480  0.35919400  1
  C  1014  1  0.85386000  0.19268700  0.35938600  1
  C  1015  1  0.83172900  0.15706500  0.35045900  1
  C  1016  1  0.84899800  0.14046300  0.33864000  1
  C  1017  1  0.88749800  0.15976500  0.33550400  1
  C  1030  1  0.91350280  0.25339880  0.36216700  1
  C  1031  1  0.94935680  0.21737380  0.33723700  1
  C  1034  1  0.87746900  0.28920300  0.38694400  1
  C  1041  1  0.62442400  0.25196700  0.38802000  1
  C  1042  1  0.65888500  0.26928300  0.39947800  1
  C  1043  1  0.69314600  0.28650200  0.36151900  1
  C  1044  1  0.65925300  0.26947200  0.34946700  1
  C  1045  1  0.66017700  0.27000500  0.32510500  1
  C  1046  1  0.69357200  0.28686400  0.31262100  1
  C  1047  1  0.72680300  0.30353800  0.32507000  1
  C  1048  1  0.72663000  0.30337300  0.34912300  1
  C  1049  1  0.65968200  0.26948800  0.42365400  1
  C  1050  1  0.62696600  0.25299600  0.43650000  1
  C  1051  1  0.59219000  0.23594600  0.42563200  1
  C  1052  1  0.59157900  0.23537300  0.40144700  1
  C  1053  1  0.60378000  0.27225300  0.35531900  1
  C  1054  1  0.56995500  0.25522300  0.34317300  1
  C  1055  1  0.56990500  0.19444100  0.34313400  1
  C  1056  1  0.60377400  0.21115400  0.35523200  1
  C  1057  1  0.55493300  0.15763100  0.33543700  1
  C  1058  1  0.57407600  0.13826300  0.33849800  1
  C  1059  1  0.60807300  0.15484500  0.35018000  1
  C  1060  1  0.62162900  0.19043500  0.35919100  1
  C  1061  1  0.62168700  0.31081100  0.35933800  1
  C  1062  1  0.60822700  0.33293800  0.35036700  1
  C  1063  1  0.57432700  0.31567800  0.33858300  1
  C  1064  1  0.55509900  0.27717200  0.33548000  1
  C  1077  1  0.62272100  0.25115400  0.36214900  1
  C  1078  1  0.55082800  0.21530300  0.33723400  1
  C  1081  1  0.69455800  0.28718600  0.38692700  1
  C  1088  1  0.91037180  0.54030380  0.38803700  1
  C  1089  1  0.89321500  0.50584500  0.39949900  1
  C  1090  1  0.87612500  0.47157800  0.36154100  1
  C  1091  1  0.89299500  0.50546800  0.34948800  1
  C  1092  1  0.89258900  0.50453900  0.32512300  1
  C  1093  1  0.87603700  0.47114300  0.31264500  1
  C  1094  1  0.85947000  0.43791300  0.32509400  1
  C  1095  1  0.85949000  0.43809300  0.34914700  1
  C  1096  1  0.89263000  0.50505100  0.42367500  1
  C  1097  1  0.90886080  0.53777080  0.43651900  1
  C  1098  1  0.92663380  0.57254180  0.42564700  1
  C  1099  1  0.92664980  0.57315080  0.40146500  1
  C  1100  1  0.95127480  0.56092380  0.35532300  1
  C  1101  1  0.96807080  0.59474280  0.34317000  1
  C  1102  1  0.90735780  0.59482780  0.34314600  1
  C  1103  1  0.89020600  0.56097500  0.35526300  1
  C  1104  1  0.88552400  0.60980200  0.33544900  1
  C  1105  1  0.84702000  0.59067700  0.33853400  1
  C  1106  1  0.82961100  0.55677700  0.35032200  1
  C  1107  1  0.85164000  0.54315800  0.35925800  1
  C  1108  1  0.97191580  0.54300680  0.35934000  1
  C  1109  1  0.00750500  0.55646000  0.35037000  1
  C  1110  1  0.02414700  0.59035700  0.33858300  1
  C  1111  1  0.00487200  0.60958700  0.33547300  1
  C  1124  1  0.91124080  0.54200280  0.36216700  1
  C  1125  1  0.94728680  0.61387480  0.33722500  1
  C  1128  1  0.87541400  0.47017000  0.38694900  1
  C  1135  1  0.62480000  0.25344800  0.06674400  1
  C  1136  1  0.65934900  0.27109500  0.05539300  1
  C  1137  1  0.69327800  0.28817400  0.09345500  1
  C  1138  1  0.65930300  0.27084500  0.10541700  1
  C  1139  1  0.66009800  0.27113000  0.12978800  1
  C  1140  1  0.69329900  0.28791400  0.14234300  1
  C  1141  1  0.72674100  0.30498000  0.12997700  1
  C  1142  1  0.72668000  0.30508500  0.10593000  1
  C  1143  1  0.66036100  0.27152500  0.03121900  1
  C  1144  1  0.62775600  0.25492700  0.01826500  1
  C  1145  1  0.59289100  0.23756200  0.02902400  1
  C  1146  1  0.59207700  0.23676100  0.05320500  1
  C  1147  1  0.60423000  0.21230200  0.09936200  1
  C  1148  1  0.57028000  0.19514900  0.11137200  1
  C  1149  1  0.56954300  0.25553900  0.11144500  1
  C  1150  1  0.60351400  0.27302900  0.09946700  1
  C  1151  1  0.55416700  0.27705300  0.11907700  1
  C  1152  1  0.57299200  0.31557200  0.11605000  1
  C  1153  1  0.60699100  0.33330000  0.10438300  1
  C  1154  1  0.62105500  0.31159500  0.09555600  1
  C  1155  1  0.62246200  0.19196500  0.09533700  1
  C  1156  1  0.60913800  0.15628500  0.10412500  1
  C  1157  1  0.57516800  0.13933900  0.11583300  1
  C  1158  1  0.55564200  0.15831500  0.11894500  1
  C  1171  1  0.62288200  0.25236200  0.09261500  1
  C  1172  1  0.55076100  0.21558000  0.11726500  1
  C  1175  1  0.69491000  0.28910600  0.06805600  1
  C  1182  1  0.91124680  0.25324980  0.06675900  1
  C  1183  1  0.89360600  0.27016000  0.05541000  1
  C  1184  1  0.87655900  0.28703600  0.09347400  1
  C  1185  1  0.89388100  0.27038100  0.10543400  1
  C  1186  1  0.89359900  0.27088800  0.12980300  1
  C  1187  1  0.87682200  0.28731200  0.14236100  1
  C  1188  1  0.85976900  0.30370200  0.12999800  1
  C  1189  1  0.85966200  0.30353700  0.10595000  1
  C  1190  1  0.89317000  0.27073900  0.03123600  1
  C  1191  1  0.90975480  0.25472080  0.01828100  1
  C  1192  1  0.92711580  0.23721380  0.02903600  1
  C  1193  1  0.92792080  0.23720080  0.05321700  1
  C  1194  1  0.95240280  0.27381680  0.09937300  1
  C  1195  1  0.96955180  0.25700780  0.11137300  1
  C  1196  1  0.90914780  0.19589580  0.11145700  1
  C  1197  1  0.89166400  0.21239200  0.09948500  1
  C  1198  1  0.88762700  0.15899600  0.11907500  1
  C  1199  1  0.84911100  0.13930900  0.11604900  1
  C  1200  1  0.83138700  0.15562100  0.10442100  1
  C  1201  1  0.85309300  0.19137700  0.09558200  1
  C  1202  1  0.97276480  0.31237780  0.09532300  1
  C  1203  1  0.00843900  0.33472500  0.10412800  1
  C  1204  1  0.02538000  0.31768800  0.11582800  1
  C  1205  1  0.00639600  0.27918600  0.11893600  1
  C  1218  1  0.91234080  0.25242180  0.09262900  1
  C  1219  1  0.94910780  0.21705880  0.11727000  1
  C  1222  1  0.87561700  0.28772900  0.06807500  1
  C  1229  1  0.91143380  0.53984180  0.06676400  1
  C  1230  1  0.89454300  0.50529100  0.05541500  1
  C  1231  1  0.87768200  0.47136800  0.09348100  1
  C  1232  1  0.89432200  0.50534600  0.10543900  1
  C  1233  1  0.89380600  0.50455700  0.12981000  1
  C  1234  1  0.87739100  0.47135800  0.14236800  1
  C  1235  1  0.86102100  0.43791300  0.13000500  1
  C  1236  1  0.86119200  0.43797100  0.10595700  1
  C  1237  1  0.89397200  0.50427600  0.03124300  1
  C  1238  1  0.90997480  0.53688080  0.01828600  1
  C  1239  1  0.92746880  0.57174780  0.02904100  1
  C  1240  1  0.92747280  0.57256480  0.05322200  1
  C  1241  1  0.89084600  0.56041100  0.09937600  1
  C  1242  1  0.90764480  0.59438180  0.11136500  1
  C  1243  1  0.96877080  0.59511780  0.11146100  1
  C  1244  1  0.95229180  0.56113280  0.09949200  1
  C  1245  1  0.00566400  0.61050300  0.11909200  1
  C  1246  1  0.02534200  0.59165900  0.11609800  1
  C  1247  1  0.00907900  0.55765100  0.10443800  1
  C  1248  1  0.97332380  0.54359580  0.09559500  1
  C  1249  1  0.85227600  0.54216800  0.09536300  1
  C  1250  1  0.82991400  0.55548400  0.10415200  1
  C  1251  1  0.84695500  0.58951600  0.11579700  1
  C  1252  1  0.88546300  0.60906600  0.11888900  1
  C  1265  1  0.91226080  0.54176580  0.09263400  1
  C  1266  1  0.94759380  0.61390380  0.11726200  1
  C  1269  1  0.87699100  0.46973500  0.06808000  1
  C  1276  1  0.34017100  0.11090300  0.56673800  1
  C  1277  1  0.30562200  0.09324700  0.55538500  1
  C  1278  1  0.27168900  0.07614700  0.59344600  1
  C  1279  1  0.30566200  0.09347700  0.60540900  1
  C  1280  1  0.30487000  0.09318700  0.62977800  1
  C  1281  1  0.27166700  0.07639500  0.64233500  1
  C  1282  1  0.23822600  0.05932700  0.62996800  1
  C  1283  1  0.23828900  0.05922800  0.60592000  1
  C  1284  1  0.30461600  0.09282300  0.53121100  1
  C  1285  1  0.33722200  0.10943600  0.51825900  1
  C  1286  1  0.37208800  0.12680500  0.52901800  1
  C  1287  1  0.37289900  0.12759900  0.55319900  1
  C  1288  1  0.36072200  0.15202900  0.59936100  1
  C  1289  1  0.39470000  0.16920200  0.61134000  1
  C  1290  1  0.39543900  0.10881500  0.61142700  1
  C  1291  1  0.36145600  0.09131200  0.59945700  1
  C  1292  1  0.41084500  0.08731300  0.61904000  1
  C  1293  1  0.39201300  0.04879300  0.61603200  1
  C  1294  1  0.35798100  0.03105400  0.60440100  1
  C  1295  1  0.34393500  0.05274700  0.59553300  1
  C  1296  1  0.34247000  0.17235200  0.59536500  1
  C  1297  1  0.35577900  0.20801400  0.60417900  1
  C  1298  1  0.38985100  0.22504100  0.61577600  1
  C  1299  1  0.40938900  0.20607000  0.61886700  1
  C  1312  1  0.34208300  0.11197400  0.59260700  1
  C  1313  1  0.41422600  0.14877800  0.61723200  1
  C  1316  1  0.27006200  0.07522600  0.56804700  1
  C  1323  1  0.05378300  0.11114010  0.56675300  1
  C  1324  1  0.07142800  0.09423710  0.55540100  1
  C  1325  1  0.08851000  0.07738800  0.59346500  1
  C  1326  1  0.07118500  0.09403810  0.60542600  1
  C  1327  1  0.07147300  0.09353510  0.62979500  1
  C  1328  1  0.08826300  0.07712500  0.64235200  1
  C  1329  1  0.10532400  0.06074300  0.62998700  1
  C  1330  1  0.10542200  0.06090200  0.60593900  1
  C  1331  1  0.07185900  0.09365710  0.53122800  1
  C  1332  1  0.05526800  0.10967110  0.51827500  1
  C  1333  1  0.03789400  0.12716510  0.52903200  1
  C  1334  1  0.03709400  0.12717510  0.55321300  1
  C  1335  1  0.01264400  0.09056610  0.59937300  1
  C  1336  1  0.99548475  0.10737875  0.61136000  1
  C  1337  1  0.05587900  0.16850100  0.61143900  1
  C  1338  1  0.07337500  0.15201110  0.59947300  1
  C  1339  1  0.07739100  0.20539900  0.61906000  1
  C  1340  1  0.11591200  0.22508100  0.61605600  1
  C  1341  1  0.13364300  0.20876810  0.60443900  1
  C  1342  1  0.11194200  0.17303910  0.59556000  1
  C  1343  1  0.99230875  0.05199785  0.59535000  1
  C  1344  1  0.95668880  0.02964790  0.60422700  1
  C  1345  1  0.93968880  0.04668580  0.61585800  1
  C  1346  1  0.95862980  0.08520180  0.61890600  1
  C  1359  1  0.05270000  0.11197510  0.59262300  1
  C  1360  1  0.01591700  0.14733100  0.61725000  1
  C  1363  1  0.08943900  0.07668600  0.56806400  1
  C  1370  1  0.05359800  0.82454200  0.56675700  1
  C  1371  1  0.07049800  0.85909300  0.55540600  1
  C  1372  1  0.08736200  0.89301900  0.59347100  1
  C  1373  1  0.07071400  0.85904200  0.60543100  1
  C  1374  1  0.07121800  0.85983000  0.62980000  1
  C  1375  1  0.08763100  0.89302900  0.64235900  1
  C  1376  1  0.10401200  0.92647200  0.62999700  1
  C  1377  1  0.10385200  0.92641700  0.60594800  1
  C  1378  1  0.07107000  0.86010400  0.53123300  1
  C  1379  1  0.05505900  0.82749900  0.51827800  1
  C  1380  1  0.03757000  0.79263100  0.52903500  1
  C  1381  1  0.03755700  0.79181900  0.55321600  1
  C  1382  1  0.07418100  0.80397400  0.59937200  1
  C  1383  1  0.05737100  0.77000800  0.61136400  1
  C  1384  1  0.99624475  0.76926875  0.61143900  1
  C  1385  1  0.01273700  0.80326200  0.59948100  1
  C  1386  1  0.95932980  0.75385280  0.61903500  1
  C  1387  1  0.93966480  0.77271580  0.61605800  1
  C  1388  1  0.95600580  0.80680180  0.60448700  1
  C  1389  1  0.99171075  0.82080675  0.59557700  1
  C  1390  1  0.11274500  0.82219600  0.59533400  1
  C  1391  1  0.13510500  0.80890600  0.60416700  1
  C  1392  1  0.11806400  0.77488800  0.61582500  1
  C  1393  1  0.07956000  0.75535600  0.61892700  1
  C  1406  1  0.05277100  0.82262300  0.59262600  1
  C  1407  1  0.01741900  0.75048000  0.61724900  1
  C  1410  1  0.08805700  0.89465100  0.56807000  1
  C  1417  1  0.88308600  0.89719210  0.83713100  1
  C  1419  1  0.91410080  0.86413980  0.84744500  1
  C  1420  1  0.94217880  0.89676280  0.85770800  1
  C  1422  1  0.91162080  0.92996590  0.84684900  1
  C  1425  1  0.91292980  0.96361490  0.84491400  1
  C  1427  1  0.91551880  0.83183980  0.84536800  1
  C  1429  1  0.29700100  0.28166000  0.83720700  1
  C  1431  1  0.23288200  0.25053210  0.84739900  1
  C  1432  1  0.23740100  0.22239400  0.85759500  1
  C  1434  1  0.30122300  0.25307600  0.84686200  1
  C  1437  1  0.33361000  0.25183500  0.84498100  1
  C  1439  1  0.19916200  0.24909810  0.84530600  1
  C  1441  1  0.26747400  0.86773900  0.83710800  1
  C  1443  1  0.30054200  0.93178300  0.84747300  1
  C  1444  1  0.26793300  0.92721800  0.85776800  1
  C  1446  1  0.23471100  0.86348300  0.84685400  1
  C  1449  1  0.20105400  0.83115100  0.84490500  1
  C  1451  1  0.33283900  0.96550500  0.84540400  1
  C  1453  1  0.08196100  0.46717900  0.33719900  1
  C  1455  1  0.05090200  0.50020500  0.34747100  1
  C  1456  1  0.02282400  0.46758000  0.35773000  1
  C  1458  1  0.05342100  0.43439600  0.34690600  1
  C  1461  1  0.05212000  0.40074600  0.34497800  1
  C  1463  1  0.04942800  0.53246800  0.34535800  1
  C  1465  1  0.66807900  0.08275700  0.33709200  1
  C  1467  1  0.73210400  0.11369400  0.34750700  1
  C  1468  1  0.72752600  0.14171400  0.35782400  1
  C  1470  1  0.66381200  0.11124400  0.34686200  1
  C  1473  1  0.63149300  0.11259000  0.34489300  1
  C  1475  1  0.76582500  0.11511500  0.34544500  1
  C  1477  1  0.69747800  0.49673900  0.33733300  1
  C  1479  1  0.66451500  0.43259300  0.34746200  1
  C  1480  1  0.69718900  0.43709300  0.35762000  1
  C  1482  1  0.73030100  0.50094200  0.34694700  1
  C  1485  1  0.76392700  0.53333300  0.34506500  1
  C  1487  1  0.63224700  0.39886400  0.34533900  1
  C  1489  1  0.66623600  0.46541700  0.11732800  1
  C  1491  1  0.73032600  0.49869900  0.10707400  1
  C  1492  1  0.72600100  0.46608700  0.09693100  1
  C  1494  1  0.66220900  0.43265900  0.10772400  1
  C  1497  1  0.62996200  0.39892400  0.10966300  1
  C  1499  1  0.76393600  0.53113200  0.10910000  1
  C  1501  1  0.69924800  0.08266300  0.11725500  1
  C  1503  1  0.66601400  0.11356300  0.10710300  1
  C  1504  1  0.69865800  0.14190800  0.09702500  1
  C  1506  1  0.73203400  0.11144400  0.10771400  1
  C  1509  1  0.76576000  0.11289700  0.10962800  1
  C  1511  1  0.63360000  0.11476800  0.10914400  1
  C  1513  1  0.08199500  0.49842100  0.11734700  1
  C  1515  1  0.05114400  0.43430900  0.10714300  1
  C  1516  1  0.02280200  0.43860900  0.09706000  1
  C  1518  1  0.05321300  0.50242100  0.10780100  1
  C  1521  1  0.05171800  0.53466400  0.10974800  1
  C  1523  1  0.04997700  0.40070300  0.10915300  1
  C  1525  1  0.29874600  0.89899100  0.61746600  1
  C  1527  1  0.23469700  0.86566800  0.60711800  1
  C  1528  1  0.23907800  0.89822800  0.59685900  1
  C  1530  1  0.30282400  0.93170300  0.60775200  1
  C  1533  1  0.33507700  0.96544400  0.60967500  1
  C  1535  1  0.20107300  0.83325700  0.60915200  1
  C  1537  1  0.26574100  0.28161610  0.61744400  1
  C  1539  1  0.29906100  0.25088900  0.60708400  1
  C  1540  1  0.26648000  0.22268200  0.59686000  1
  C  1542  1  0.23301500  0.25295310  0.60776600  1
  C  1545  1  0.19926300  0.25142510  0.60973500  1
  C  1547  1  0.33148200  0.24969100  0.60910400  1
  C  1549  1  0.88306500  0.86596600  0.61744000  1
  C  1551  1  0.91384580  0.93004090  0.60715400  1
  C  1552  1  0.94207680  0.92568880  0.59695300  1
  C  1554  1  0.91175080  0.86191380  0.60778500  1
  C  1557  1  0.91326280  0.82967780  0.60973000  1
  C  1559  1  0.91507480  0.96366890  0.60921000  1
  C  1561  1  0.06907000  0.09498010  0.73270600  1
  C  1563  1  0.09327800  0.07131200  0.70439500  1
  C  1564  1  0.10631100  0.05809800  0.72228200  1
  C  1566  1  0.08210500  0.08176500  0.75059500  1
  C  1569  1  0.07675900  0.08677810  0.77346500  1
  C  1571  1  0.09865400  0.06629000  0.68152900  1
  C  1573  1  0.30871300  0.09558900  0.73268900  1
  C  1575  1  0.26083800  0.07142600  0.70437600  1
  C  1576  1  0.23458800  0.05843700  0.72226500  1
  C  1578  1  0.28246100  0.08259800  0.75057800  1
  C  1581  1  0.29282000  0.08794100  0.77344800  1
  C  1583  1  0.25044000  0.06604900  0.68151200  1
  C  1585  1  0.06972400  0.85596000  0.73271100  1
  C  1587  1  0.09343700  0.90384300  0.70440300  1
  C  1588  1  0.10666500  0.93008700  0.72229200  1
  C  1590  1  0.08295200  0.88220700  0.75060200  1
  C  1593  1  0.07792300  0.87184300  0.77347100  1
  C  1595  1  0.09847200  0.91424600  0.68154000  1
  C  1597  1  0.89595900  0.26941600  0.23272200  1
  C  1599  1  0.87180800  0.29313200  0.20440400  1
  C  1600  1  0.85878900  0.30636700  0.22229000  1
  C  1602  1  0.88293900  0.28265100  0.25060600  1
  C  1605  1  0.88826300  0.27762200  0.27347800  1
  C  1607  1  0.86644900  0.29816700  0.18153900  1
  C  1609  1  0.65627800  0.26871600  0.23270300  1
  C  1611  1  0.70414200  0.29290900  0.20438500  1
  C  1612  1  0.73039800  0.30593400  0.22226900  1
  C  1614  1  0.68253600  0.28174200  0.25058900  1
  C  1617  1  0.67218300  0.27640000  0.27346100  1
  C  1619  1  0.71453200  0.29828600  0.18151800  1
  C  1621  1  0.89523900  0.50841000  0.23272200  1
  C  1623  1  0.87152200  0.46053400  0.20441100  1
  C  1624  1  0.85825500  0.43428700  0.22229900  1
  C  1626  1  0.88197300  0.48216100  0.25060900  1
  C  1629  1  0.88699300  0.49252100  0.27348200  1
  C  1631  1  0.86649900  0.45013500  0.18154600  1
  C  1633  1  0.01074500  0.18399400  0.98953520  1
  C  1635  1  0.95995980  0.19512580  0.98725820  1
  C  1636  1  0.95276180  0.17986080  0.96496320  1
  C  1638  1  0.00354200  0.16871600  0.96724320  1
  C  1641  1  0.02461400  0.15503100  0.95750520  1
  C  1643  1  0.93884980  0.20874380  0.99702321  1
  C  1645  1  0.45603800  0.15389800  0.98952220  1
  C  1647  1  0.51795000  0.20470100  0.98724820  1
  C  1648  1  0.50988000  0.21189600  0.96495220  1
  C  1650  1  0.44796300  0.16110400  0.96723120  1
  C  1653  1  0.41320500  0.14002400  0.95749320  1
  C  1655  1  0.55267900  0.22581000  0.99701121  1
  C  1657  1  0.98067280  0.70859980  0.98953920  1
  C  1659  1  0.96954880  0.64668380  0.98726420  1
  C  1660  1  0.98481880  0.65475280  0.96496920  1
  C  1662  1  0.99595375  0.71667375  0.96724820  1
  C  1665  1  0.00963800  0.75143300  0.95751120  1
  C  1667  1  0.95593580  0.61195580  0.99702821  1
  C  1669  1  0.95422480  0.18035680  0.48954600  1
  C  1671  1  0.00502300  0.16924400  0.48726300  1
  C  1672  1  0.01221200  0.18450700  0.46496700  1
  C  1674  1  0.96142380  0.19563880  0.46725600  1
  C  1677  1  0.94034280  0.20931680  0.45752200  1
  C  1679  1  0.02613600  0.15562100  0.49702100  1
  C  1681  1  0.50895700  0.21047100  0.48953100  1
  C  1683  1  0.44703900  0.15968400  0.48724600  1
  C  1684  1  0.45511200  0.15249500  0.46495000  1
  C  1686  1  0.51703600  0.20327400  0.46723700  1
  C  1689  1  0.55179600  0.22434800  0.45750500  1
  C  1691  1  0.41230700  0.13856900  0.49700700  1
  C  1693  1  0.98438980  0.65577880  0.48954000  1
  C  1695  1  0.99549075  0.71768775  0.48726300  1
  C  1696  1  0.98021980  0.70960980  0.46496800  1
  C  1698  1  0.96910180  0.64769480  0.46725100  1
  C  1701  1  0.95542880  0.61293880  0.45751500  1
  C  1703  1  0.00911000  0.75242000  0.49702200  1
  N  44  1  0.58657700  0.37509800  0.90234800  1
  N  45  1  0.66362000  0.52313400  0.98848600  1
  N  46  1  0.73299800  0.45664800  0.84112100  1
  N  47  1  0.81367600  0.60195500  0.90264700  1
  N  91  1  0.97837600  0.60445800  0.90242100  1
  N  92  1  0.04924500  0.52729400  0.98847400  1
  N  93  1  0.91339000  0.45801000  0.84110400  1
  N  94  1  0.97806500  0.37725300  0.90270400  1
  N  138  1  0.81585200  0.21265600  0.90234400  1
  N  139  1  0.66781300  0.14167000  0.98849200  1
  N  140  1  0.73433400  0.27754300  0.84112900  1
  N  141  1  0.58895400  0.21285900  0.90270200  1
  N  185  1  0.66725400  0.75301100  0.40238900  1
  N  186  1  0.59013700  0.60494800  0.48850100  1
  N  187  1  0.52083700  0.67149900  0.34113300  1
  N  188  1  0.44010500  0.52603500  0.40276000  1
  N  232  1  0.27554600  0.52370800  0.40233200  1
  N  233  1  0.20457500  0.60082800  0.48848400  1
  N  234  1  0.34042800  0.67009600  0.34111400  1
  N  235  1  0.27579300  0.75083200  0.40263200  1
  N  279  1  0.43794600  0.91555400  0.40247600  1
  N  280  1  0.58606100  0.98643400  0.48849800  1
  N  281  1  0.51935500  0.85055500  0.34113800  1
  N  282  1  0.66478200  0.91517700  0.40265000  1
  N  326  1  0.27423300  0.75128400  0.15491700  1
  N  327  1  0.20536400  0.60238600  0.06872500  1
  N  328  1  0.33514500  0.66834300  0.21649100  1
  N  329  1  0.27696700  0.52560500  0.15454500  1
  N  373  1  0.43967300  0.52416200  0.15490000  1
  N  374  1  0.58855400  0.60418800  0.06873500  1
  N  375  1  0.52266200  0.66805100  0.21651000  1
  N  376  1  0.66541300  0.75257000  0.15454200  1
  N  420  1  0.66674900  0.91667400  0.15500600  1
  N  421  1  0.58676200  0.98554500  0.06874100  1
  N  422  1  0.52291100  0.85579200  0.21651600  1
  N  423  1  0.43833700  0.91399900  0.15451600  1
  N  467  1  0.97960000  0.37679800  0.65488500  1
  N  468  1  0.04842500  0.52572100  0.56872100  1
  N  469  1  0.91863500  0.45970900  0.71648300  1
  N  470  1  0.97685700  0.60254500  0.65452200  1
  N  514  1  0.81416400  0.60392600  0.65497200  1
  N  515  1  0.66525600  0.52392100  0.56873400  1
  N  516  1  0.73123000  0.46012200  0.71650000  1
  N  517  1  0.58846600  0.37552900  0.65460800  1
  N  561  1  0.58705800  0.21144300  0.65498100  1
  N  562  1  0.66708900  0.14257200  0.56873600  1
  N  563  1  0.73090300  0.27232900  0.71650700  1
  N  564  1  0.81549700  0.21412600  0.65452900  1
  N  566  1  0.53011000  0.24800000  0.88888800  1
  N  569  1  0.58441900  0.30982200  0.90805000  1
  N  578  1  0.90771800  0.66089200  0.88894400  1
  N  581  1  0.91517600  0.60646100  0.90796200  1
  N  590  1  0.94294200  0.28328600  0.88887700  1
  N  593  1  0.88114400  0.27573800  0.90809700  1
  N  602  1  0.72373600  0.88010300  0.38894700  1
  N  605  1  0.66940200  0.81826200  0.40807500  1
  N  614  1  0.34615700  0.46723100  0.38887400  1
  N  617  1  0.33858600  0.52143800  0.40814000  1
  N  626  1  0.31083600  0.84491200  0.38905500  1
  N  629  1  0.37276300  0.85233800  0.40799600  1
  N  638  1  0.34423300  0.87845800  0.16819000  1
  N  641  1  0.33713400  0.81666800  0.14925100  1
  N  650  1  0.31248600  0.46696300  0.16812900  1
  N  653  1  0.37434000  0.52177400  0.14933300  1
  N  662  1  0.72398300  0.84669800  0.16820700  1
  N  665  1  0.66919000  0.85374700  0.14938200  1
  N  674  1  0.90955900  0.24968800  0.66832100  1
  N  677  1  0.91675100  0.31138900  0.64918700  1
  N  686  1  0.94132200  0.66107000  0.66828800  1
  N  689  1  0.87959300  0.60652000  0.64920400  1
  N  698  1  0.52989300  0.28142700  0.66830200  1
  N  701  1  0.58450500  0.27429000  0.64927900  1
  N  710  1  0.71949700  0.47117500  0.76194400  1
  N  713  1  0.74469400  0.44564400  0.79568600  1
  N  722  1  0.94142300  0.47143700  0.76192700  1
  N  725  1  0.89069300  0.44632600  0.79566900  1
  N  734  1  0.71981900  0.24953000  0.76194900  1
  N  737  1  0.74537700  0.30025200  0.79569700  1
  N  746  1  0.53436200  0.65697200  0.26195700  1
  N  749  1  0.50919500  0.68254400  0.29569400  1
  N  758  1  0.31237000  0.65660500  0.26194000  1
  N  761  1  0.36311300  0.68178500  0.29567500  1
  N  770  1  0.53396900  0.87858200  0.26195800  1
  N  773  1  0.50833800  0.82785300  0.29570300  1
  N  782  1  0.63345600  0.57833400  0.04984600  1
  N  785  1  0.61885500  0.54924500  0.00729800  1
  N  794  1  0.13461000  0.55746900  0.04983400  1
  N  797  1  0.12011200  0.57207000  0.00728800  1
  N  806  1  0.61260900  0.05630200  0.04985100  1
  N  809  1  0.64170600  0.07079300  0.00730500  1
  N  818  1  0.62033300  0.54975900  0.54985300  1
  N  821  1  0.63492200  0.57885700  0.50730700  1
  N  830  1  0.11919300  0.57064200  0.54983800  1
  N  833  1  0.13369300  0.55605600  0.50729000  1
  N  842  1  0.64125700  0.07181600  0.54984800  1
  N  845  1  0.61215000  0.05730700  0.50730700  1
  N  896  1  0.94217180  0.99322890  0.85102600  1
  N  897  1  0.01921500  0.14126500  0.93716420  1
  N  898  1  0.08859300  0.07477900  0.78979900  1
  N  899  1  0.16927100  0.22008610  0.85132500  1
  N  943  1  0.33397100  0.22258900  0.85109900  1
  N  944  1  0.40484000  0.14542500  0.93715220  1
  N  945  1  0.26898500  0.07614100  0.78978200  1
  N  946  1  0.33366000  0.99538400  0.85138200  1
  N  990  1  0.17144700  0.83078700  0.85102200  1
  N  991  1  0.02340800  0.75980100  0.93717020  1
  N  992  1  0.08992900  0.89567400  0.78980700  1
  N  993  1  0.94454880  0.83098980  0.85138000  1
  N  1037  1  0.02284900  0.37114200  0.35106700  1
  N  1038  1  0.94573180  0.22307880  0.43717900  1
  N  1039  1  0.87643200  0.28963000  0.28981100  1
  N  1040  1  0.79570000  0.14416600  0.35143800  1
  N  1084  1  0.63114100  0.14183900  0.35101000  1
  N  1085  1  0.56017000  0.21895900  0.43716200  1
  N  1086  1  0.69602300  0.28822700  0.28979200  1
  N  1087  1  0.63138800  0.36896300  0.35131000  1
  N  1131  1  0.79354100  0.53368500  0.35115400  1
  N  1132  1  0.94165580  0.60456480  0.43717600  1
  N  1133  1  0.87495000  0.46868600  0.28981600  1
  N  1134  1  0.02037700  0.53330800  0.35132800  1
  N  1178  1  0.62982800  0.36941500  0.10359500  1
  N  1179  1  0.56095900  0.22051700  0.01740300  1
  N  1180  1  0.69074000  0.28647400  0.16516900  1
  N  1181  1  0.63256200  0.14373600  0.10322300  1
  N  1225  1  0.79526800  0.14229300  0.10357800  1
  N  1226  1  0.94414880  0.22231880  0.01741300  1
  N  1227  1  0.87825700  0.28618200  0.16518800  1
  N  1228  1  0.02100800  0.37070100  0.10322000  1
  N  1272  1  0.02234400  0.53480500  0.10368400  1
  N  1273  1  0.94235680  0.60367580  0.01741900  1
  N  1274  1  0.87850600  0.47392300  0.16519400  1
  N  1275  1  0.79393200  0.53213000  0.10319400  1
  N  1319  1  0.33519500  0.99492900  0.60356300  1
  N  1320  1  0.40402000  0.14385200  0.51739900  1
  N  1321  1  0.27423000  0.07784000  0.66516100  1
  N  1322  1  0.33245200  0.22067600  0.60320000  1
  N  1366  1  0.16975900  0.22205710  0.60365000  1
  N  1367  1  0.02085100  0.14205200  0.51741200  1
  N  1368  1  0.08682500  0.07825300  0.66517800  1
  N  1369  1  0.94406080  0.99365990  0.60328600  1
  N  1413  1  0.94265280  0.82957380  0.60365900  1
  N  1414  1  0.02268400  0.76070300  0.51741400  1
  N  1415  1  0.08649800  0.89046000  0.66518500  1
  N  1416  1  0.17109200  0.83225700  0.60320700  1
  N  1418  1  0.88570500  0.86613100  0.83756600  1
  N  1421  1  0.94001380  0.92795280  0.85672800  1
  N  1430  1  0.26331300  0.27902310  0.83762200  1
  N  1433  1  0.27077100  0.22459200  0.85664000  1
  N  1442  1  0.29853700  0.90141700  0.83755500  1
  N  1445  1  0.23673900  0.89386900  0.85677500  1
  N  1454  1  0.07933100  0.49823400  0.33762500  1
  N  1457  1  0.02499700  0.43639300  0.35675300  1
  N  1466  1  0.70175200  0.08536200  0.33755200  1
  N  1469  1  0.69418100  0.13956900  0.35681800  1
  N  1478  1  0.66643100  0.46304300  0.33773300  1
  N  1481  1  0.72835800  0.47046900  0.35667400  1
  N  1490  1  0.69982800  0.49658900  0.11686800  1
  N  1493  1  0.69272900  0.43479900  0.09792900  1
  N  1502  1  0.66808100  0.08509400  0.11680700  1
  N  1505  1  0.72993500  0.13990500  0.09801100  1
  N  1514  1  0.07957800  0.46482900  0.11688500  1
  N  1517  1  0.02478500  0.47187800  0.09806000  1
  N  1526  1  0.26515400  0.86781900  0.61699900  1
  N  1529  1  0.27234600  0.92952000  0.59786500  1
  N  1538  1  0.29691700  0.27920100  0.61696600  1
  N  1541  1  0.23518800  0.22465100  0.59788200  1
  N  1550  1  0.88548800  0.89955810  0.61698000  1
  N  1553  1  0.94009980  0.89242080  0.59795700  1
  N  1562  1  0.07509200  0.08930610  0.71062200  1
  N  1565  1  0.10028900  0.06377500  0.74436400  1
  N  1574  1  0.29701800  0.08956800  0.71060500  1
  N  1577  1  0.24628800  0.06445700  0.74434700  1
  N  1586  1  0.07541400  0.86766100  0.71062700  1
  N  1589  1  0.10097200  0.91838300  0.74437500  1
  N  1598  1  0.88995700  0.27510300  0.21063500  1
  N  1601  1  0.86479000  0.30067500  0.24437200  1
  N  1610  1  0.66796500  0.27473600  0.21061800  1
  N  1613  1  0.71870800  0.29991600  0.24435300  1
  N  1622  1  0.88956400  0.49671300  0.21063600  1
  N  1625  1  0.86393300  0.44598400  0.24438100  1
  N  1634  1  0.98905080  0.19646480  0.99852421  1
  N  1637  1  0.97444980  0.16737580  0.95597620  1
  N  1646  1  0.49020500  0.17560000  0.99851221  1
  N  1649  1  0.47570700  0.19020100  0.95596620  1
  N  1658  1  0.96820380  0.67443280  0.99852921  1
  N  1661  1  0.99730075  0.68892375  0.95598320  1
  N  1670  1  0.97592780  0.16788980  0.49853100  1
  N  1673  1  0.99051675  0.19698775  0.45598500  1
  N  1682  1  0.47478800  0.18877300  0.49851600  1
  N  1685  1  0.48928800  0.17418700  0.45596800  1
  N  1694  1  0.99685175  0.68994675  0.49852600  1
  N  1697  1  0.96774480  0.67543780  0.45598500  1
