# generated using pymatgen
data_H36C53(NO)8
_symmetry_space_group_name_H-M   'P 1'
_cell_length_a   37.26680000
_cell_length_b   55.19570000
_cell_length_c   55.19570000
_cell_angle_alpha   90.00000000
_cell_angle_beta   89.99800000
_cell_angle_gamma   90.00000000
_symmetry_Int_Tables_number   1
_chemical_formula_structural   H36C53(NO)8
_chemical_formula_sum   'H576 C848 N128 O128'
_cell_volume   113535.73959660
_cell_formula_units_Z   16
loop_
 _symmetry_equiv_pos_site_id
 _symmetry_equiv_pos_as_xyz
  1  'x, y, z'
loop_
 _atom_site_type_symbol
 _atom_site_label
 _atom_site_symmetry_multiplicity
 _atom_site_fract_x
 _atom_site_fract_y
 _atom_site_fract_z
 _atom_site_occupancy
  H  25  1  0.09116000  0.24024200  0.18168400  1
  H  26  1  0.02701600  0.24603400  0.18069600  1
  H  27  1  0.95995900  0.24490300  0.17508100  1
  H  28  1  0.89777800  0.23594200  0.16690100  1
  H  29  1  0.92869300  0.17565000  0.12452700  1
  H  30  1  0.08140400  0.18039300  0.13442100  1
  H  31  1  0.00576800  0.21702400  0.09194500  1
  H  32  1  0.02219000  0.16379500  0.03805500  1
  H  33  1  0.02044100  0.13239000  0.06849500  1
  H  34  1  0.00174100  0.15733000  0.17676200  1
  H  35  1  0.01828300  0.10605800  0.10581500  1
  H  36  1  0.01682300  0.08810400  0.14565600  1
  H  39  1  0.86675000  0.18966700  0.12595900  1
  H  41  1  0.01483300  0.12243700  0.20117300  1
  H  43  1  0.03327700  0.22372900  0.04716100  1
  H  45  1  0.13775300  0.18972900  0.15581900  1
  H  70  1  0.09101900  0.76241500  0.71431500  1
  H  71  1  0.02687100  0.75663300  0.71528700  1
  H  72  1  0.95980100  0.75779700  0.72086500  1
  H  73  1  0.89762200  0.76672100  0.72910300  1
  H  74  1  0.92854500  0.82699000  0.77150600  1
  H  75  1  0.08125300  0.82228200  0.76155800  1
  H  76  1  0.00564800  0.78564300  0.80401400  1
  H  77  1  0.02210600  0.83885500  0.85791400  1
  H  78  1  0.02033400  0.87027100  0.82748600  1
  H  79  1  0.00162600  0.84535600  0.71921400  1
  H  80  1  0.01831500  0.89660100  0.79016300  1
  H  81  1  0.01688300  0.91456200  0.75032300  1
  H  84  1  0.86661600  0.81296000  0.77010000  1
  H  86  1  0.01488800  0.88024300  0.69482000  1
  H  88  1  0.03319000  0.77892500  0.84879400  1
  H  90  1  0.13761900  0.81293100  0.74018100  1
  H  115  1  0.09098700  0.76770100  0.18693300  1
  H  116  1  0.02683800  0.76868900  0.19271700  1
  H  117  1  0.95976800  0.77427200  0.19155200  1
  H  118  1  0.89759000  0.78247100  0.18259500  1
  H  119  1  0.92852600  0.82482900  0.12229600  1
  H  120  1  0.08123300  0.81493000  0.12705200  1
  H  121  1  0.00567200  0.85737000  0.16367000  1
  H  122  1  0.02212300  0.91126500  0.11045100  1
  H  123  1  0.02030700  0.88083700  0.07903700  1
  H  124  1  0.00156500  0.77256900  0.10396000  1
  H  125  1  0.01816000  0.84352100  0.05270000  1
  H  126  1  0.01671000  0.80367900  0.03474200  1
  H  129  1  0.86658900  0.82341200  0.13630400  1
  H  131  1  0.01468600  0.74816400  0.06907100  1
  H  133  1  0.03322600  0.90214300  0.17038000  1
  H  135  1  0.13761400  0.79360900  0.13642700  1
  H  160  1  0.09098900  0.23500000  0.70900600  1
  H  161  1  0.02683900  0.23400200  0.70325200  1
  H  162  1  0.95977900  0.22841300  0.70444700  1
  H  163  1  0.89761100  0.22019300  0.71342000  1
  H  164  1  0.92861200  0.17782300  0.77369600  1
  H  165  1  0.08131300  0.18777000  0.76889000  1
  H  166  1  0.00568600  0.14527700  0.73231300  1
  H  167  1  0.02214800  0.09140300  0.78555200  1
  H  168  1  0.02040200  0.12185000  0.81694900  1
  H  169  1  0.00159400  0.23010500  0.79198800  1
  H  170  1  0.01827500  0.15918000  0.84327000  1
  H  171  1  0.01677300  0.19902500  0.86121500  1
  H  174  1  0.86666100  0.17924100  0.75972900  1
  H  176  1  0.01465200  0.25453400  0.82686900  1
  H  178  1  0.03323400  0.10049300  0.72561900  1
  H  180  1  0.13764800  0.20917400  0.75951800  1
  H  205  1  0.59420400  0.74527400  0.67494800  1
  H  206  1  0.52972900  0.74741900  0.67903000  1
  H  207  1  0.46274700  0.74147800  0.68002400  1
  H  208  1  0.40068100  0.73009000  0.67533700  1
  H  209  1  0.43097300  0.67337500  0.62810100  1
  H  210  1  0.58404300  0.68315800  0.63073700  1
  H  211  1  0.50490200  0.71705100  0.59284800  1
  H  212  1  0.52058400  0.66450800  0.53819300  1
  H  213  1  0.52089300  0.63282800  0.56834600  1
  H  214  1  0.50758900  0.65655300  0.67721300  1
  H  215  1  0.52071300  0.60611100  0.60534100  1
  H  216  1  0.52167600  0.58772900  0.64501800  1
  H  219  1  0.36957800  0.67839700  0.64086200  1
  H  221  1  0.52269300  0.62123500  0.70085200  1
  H  223  1  0.53096600  0.72455800  0.54808600  1
  H  225  1  0.64141000  0.70963700  0.63395300  1
  H  250  1  0.59387700  0.25717000  0.22097600  1
  H  251  1  0.52938800  0.25515900  0.21691900  1
  H  252  1  0.46243300  0.26121400  0.21597300  1
  H  253  1  0.40041800  0.27269000  0.22073400  1
  H  254  1  0.43099500  0.32934100  0.26796400  1
  H  255  1  0.58403500  0.31932000  0.26517200  1
  H  256  1  0.50480300  0.28555300  0.30309000  1
  H  257  1  0.52065900  0.33804300  0.35777100  1
  H  258  1  0.52103200  0.36974100  0.32763800  1
  H  259  1  0.50759900  0.34610000  0.21876100  1
  H  260  1  0.52083600  0.39648800  0.29066100  1
  H  261  1  0.52180200  0.41489500  0.25099300  1
  H  264  1  0.36955400  0.32438400  0.25533200  1
  H  266  1  0.52277600  0.38143000  0.19513900  1
  H  268  1  0.53082100  0.27798000  0.34784300  1
  H  270  1  0.64127000  0.29259900  0.26196000  1
  H  295  1  0.59424200  0.27436200  0.69193500  1
  H  296  1  0.52976600  0.27028900  0.69407400  1
  H  297  1  0.46278700  0.26930200  0.68812600  1
  H  298  1  0.40072400  0.27400900  0.67673900  1
  H  299  1  0.43104000  0.32124600  0.62003100  1
  H  300  1  0.58411000  0.31857000  0.62981600  1
  H  301  1  0.50493200  0.35647500  0.66370100  1
  H  302  1  0.52052200  0.41113700  0.61115100  1
  H  303  1  0.52085200  0.38098300  0.57947300  1
  H  304  1  0.50760700  0.27211000  0.60320200  1
  H  305  1  0.52068600  0.34398300  0.55275600  1
  H  306  1  0.52161200  0.30430800  0.53437000  1
  H  309  1  0.36964000  0.30849500  0.62504900  1
  H  311  1  0.52258800  0.24846000  0.56787400  1
  H  313  1  0.53092000  0.40125200  0.67120800  1
  H  315  1  0.64146600  0.31534200  0.65628100  1
  H  340  1  0.59432800  0.72818600  0.20402500  1
  H  341  1  0.52986000  0.73230900  0.20186000  1
  H  342  1  0.46287300  0.73333400  0.20776600  1
  H  343  1  0.40079400  0.72869100  0.21914000  1
  H  344  1  0.43097900  0.68149200  0.27590800  1
  H  345  1  0.58406100  0.68402400  0.26616800  1
  H  346  1  0.50491600  0.64619000  0.23225800  1
  H  347  1  0.52050300  0.59153200  0.28480900  1
  H  348  1  0.52079600  0.62168400  0.31648900  1
  H  349  1  0.50768200  0.73055700  0.29274800  1
  H  350  1  0.52060000  0.65868000  0.34320700  1
  H  351  1  0.52164100  0.69835700  0.36158100  1
  H  354  1  0.36959700  0.69428800  0.27085500  1
  H  356  1  0.52272500  0.75419800  0.32806400  1
  H  358  1  0.53093100  0.60142600  0.22476400  1
  H  360  1  0.64145600  0.68719700  0.23972600  1
  H  367  1  0.93240400  0.06789700  0.16772100  1
  H  374  1  0.97389100  0.94029100  0.20892800  1
  H  375  1  0.98988400  0.95048700  0.13412700  1
  H  376  1  0.02705300  0.06293700  0.20902700  1
  H  377  1  0.99081800  0.99340000  0.13986500  1
  H  378  1  0.02929900  0.02024000  0.20185400  1
  H  386  1  0.95837300  0.91131800  0.15417600  1
  H  387  1  0.97421800  0.90474300  0.18350600  1
  H  389  1  0.97404900  0.09644700  0.21494900  1
  H  390  1  0.95277600  0.10396800  0.18769000  1
  H  397  1  0.93236900  0.93476500  0.72819300  1
  H  404  1  0.97390200  0.06238800  0.68706700  1
  H  405  1  0.98983000  0.05216900  0.76187100  1
  H  406  1  0.02710900  0.93974700  0.68697900  1
  H  407  1  0.99075600  0.00925700  0.75612100  1
  H  408  1  0.02932700  0.98244500  0.69416400  1
  H  416  1  0.95837300  0.09135500  0.74183200  1
  H  417  1  0.97421800  0.09793000  0.71250200  1
  H  419  1  0.97414000  0.90623600  0.68099200  1
  H  420  1  0.95278600  0.89870800  0.70821900  1
  H  427  1  0.93225600  0.78160100  0.01451700  1
  H  434  1  0.97382700  0.74038900  0.88692500  1
  H  435  1  0.98979200  0.81519400  0.89711000  1
  H  436  1  0.02692700  0.74031300  0.00957500  1
  H  437  1  0.99070200  0.80946400  0.94002700  1
  H  438  1  0.02918900  0.74748200  0.96687900  1
  H  446  1  0.95833000  0.79513500  0.85793200  1
  H  447  1  0.97418100  0.76580400  0.85137100  1
  H  449  1  0.97392000  0.73438300  0.04307000  1
  H  450  1  0.95263100  0.76163600  0.05059300  1
  H  457  1  0.93231000  0.22103700  0.88145100  1
  H  464  1  0.97388600  0.26225800  0.00902900  1
  H  465  1  0.98991300  0.18746000  0.99883700  1
  H  466  1  0.02693700  0.26237600  0.88636800  1
  H  467  1  0.99081500  0.19319300  0.95592300  1
  H  468  1  0.02923300  0.25519900  0.92906100  1
  H  476  1  0.95842400  0.20750700  0.03801300  1
  H  477  1  0.97426100  0.23684100  0.04458200  1
  H  479  1  0.97389100  0.26827800  0.85289300  1
  H  480  1  0.95265000  0.24101000  0.84537000  1
  H  487  1  0.43687400  0.56869300  0.66816900  1
  H  494  1  0.47236100  0.44017800  0.70892500  1
  H  495  1  0.48951300  0.45009500  0.63420500  1
  H  496  1  0.53177900  0.56157300  0.70889100  1
  H  497  1  0.49210600  0.49297900  0.63996200  1
  H  498  1  0.53180800  0.51885000  0.70169100  1
  H  506  1  0.45681700  0.41133800  0.65390100  1
  H  507  1  0.47152200  0.40462200  0.68347000  1
  H  509  1  0.48098000  0.59623100  0.71525300  1
  H  510  1  0.45900100  0.60417600  0.68838500  1
  H  517  1  0.43693600  0.43395600  0.22785200  1
  H  524  1  0.47242300  0.56246100  0.18702200  1
  H  525  1  0.48951600  0.55257400  0.26175200  1
  H  526  1  0.53182200  0.44106500  0.18710700  1
  H  527  1  0.49211900  0.50968800  0.25601200  1
  H  528  1  0.53184600  0.48379100  0.19428500  1
  H  536  1  0.45680900  0.59131600  0.24202100  1
  H  537  1  0.47155900  0.59802500  0.21246200  1
  H  539  1  0.48100200  0.40640300  0.18077100  1
  H  540  1  0.45906800  0.39846400  0.20765800  1
  H  547  1  0.43683900  0.28122800  0.51532300  1
  H  554  1  0.47221700  0.24035600  0.38683600  1
  H  555  1  0.48952400  0.31506600  0.39669500  1
  H  556  1  0.53165000  0.24040600  0.50822100  1
  H  557  1  0.49212200  0.30933600  0.43958300  1
  H  558  1  0.53169600  0.24758100  0.46549500  1
  H  566  1  0.45677400  0.29537500  0.35795900  1
  H  567  1  0.47140600  0.26578500  0.35126300  1
  H  569  1  0.48083500  0.23411200  0.54287500  1
  H  570  1  0.45893100  0.26101000  0.55081700  1
  H  577  1  0.43692500  0.72152200  0.38063200  1
  H  584  1  0.47245000  0.76228400  0.50912500  1
  H  585  1  0.48956200  0.68755600  0.49923200  1
  H  586  1  0.53185700  0.76222100  0.38773200  1
  H  587  1  0.49217000  0.69330200  0.45634700  1
  H  588  1  0.53190200  0.75501900  0.43045400  1
  H  596  1  0.45686000  0.70727400  0.53797300  1
  H  597  1  0.47158300  0.73683800  0.54468700  1
  H  599  1  0.48104700  0.76859600  0.35309600  1
  H  600  1  0.45906000  0.74173400  0.34514500  1
  H  607  1  0.80215100  0.18420300  0.19767200  1
  H  614  1  0.65891100  0.28059400  0.18126700  1
  H  615  1  0.71309300  0.28560900  0.24799900  1
  H  616  1  0.82996700  0.23808200  0.14699800  1
  H  617  1  0.75970000  0.25995700  0.23279900  1
  H  618  1  0.78395800  0.26369100  0.16254700  1
  H  626  1  0.63483600  0.30725600  0.21098000  1
  H  627  1  0.66455900  0.31811900  0.23308200  1
  H  629  1  0.83509700  0.17484300  0.15630600  1
  H  630  1  0.86620800  0.18669600  0.17701800  1
  H  637  1  0.80197700  0.81842300  0.69839300  1
  H  644  1  0.65889200  0.72190200  0.71468700  1
  H  645  1  0.71320600  0.71692000  0.64799900  1
  H  646  1  0.82985100  0.76453400  0.74904100  1
  H  647  1  0.75972400  0.74263000  0.66322600  1
  H  648  1  0.78389100  0.73890000  0.73346800  1
  H  656  1  0.63492400  0.69520500  0.68496800  1
  H  657  1  0.66477700  0.68433200  0.66294900  1
  H  659  1  0.83487200  0.82777100  0.73979400  1
  H  660  1  0.86600700  0.81598600  0.71905600  1
  H  667  1  0.80202500  0.75166900  0.13087100  1
  H  674  1  0.65891600  0.76793100  0.22739200  1
  H  675  1  0.71328100  0.70126500  0.23238700  1
  H  676  1  0.82981900  0.80235600  0.18474100  1
  H  677  1  0.75978100  0.71650200  0.20666700  1
  H  678  1  0.78387700  0.78676300  0.21037800  1
  H  686  1  0.63499400  0.73821500  0.25411700  1
  H  687  1  0.66486800  0.71620800  0.26498100  1
  H  689  1  0.83487200  0.79308400  0.12151000  1
  H  690  1  0.86602800  0.77237200  0.13330600  1
  H  697  1  0.80207300  0.25097800  0.76511700  1
  H  704  1  0.65893000  0.23462300  0.66864900  1
  H  705  1  0.71327300  0.30129200  0.66357700  1
  H  706  1  0.82986500  0.20025500  0.71127700  1
  H  707  1  0.75979400  0.28608400  0.68929500  1
  H  708  1  0.78391200  0.21582500  0.68563700  1
  H  716  1  0.63498300  0.26431200  0.64190700  1
  H  717  1  0.66483800  0.28631800  0.63101200  1
  H  719  1  0.83492300  0.20956700  0.77449900  1
  H  720  1  0.86607600  0.23027700  0.76269300  1
  H  727  1  0.20692800  0.81200900  0.20226800  1
  H  734  1  0.34308800  0.70806100  0.18999400  1
  H  735  1  0.29496500  0.71393800  0.25874300  1
  H  736  1  0.17189800  0.75299000  0.16005100  1
  H  737  1  0.25095000  0.74094700  0.24254700  1
  H  738  1  0.22032500  0.72912900  0.17483400  1
  H  746  1  0.36470300  0.68198100  0.22155000  1
  H  747  1  0.33371300  0.67596400  0.24452200  1
  H  749  1  0.16402300  0.81748400  0.16461600  1
  H  750  1  0.13885000  0.80489300  0.18846600  1
  H  757  1  0.20703100  0.19073000  0.69371600  1
  H  764  1  0.34310700  0.29473100  0.70591700  1
  H  765  1  0.29499200  0.28879200  0.63717100  1
  H  766  1  0.17192600  0.24976600  0.73588700  1
  H  767  1  0.25099100  0.26178300  0.65338800  1
  H  768  1  0.22033600  0.27363700  0.72109300  1
  H  776  1  0.36471900  0.32079000  0.67433900  1
  H  777  1  0.33371300  0.32678800  0.65137500  1
  H  779  1  0.16410100  0.18527000  0.73136500  1
  H  780  1  0.13894500  0.19782900  0.70748900  1
  H  787  1  0.20720000  0.25550900  0.13738600  1
  H  794  1  0.34300800  0.24349700  0.24158900  1
  H  795  1  0.29489000  0.31222200  0.23543500  1
  H  796  1  0.17196800  0.21342800  0.19644800  1
  H  797  1  0.25098200  0.29594300  0.20839600  1
  H  798  1  0.22032600  0.22825500  0.22034400  1
  H  806  1  0.36453900  0.27514100  0.26761000  1
  H  807  1  0.33347400  0.29809200  0.27352100  1
  H  809  1  0.16428900  0.21785400  0.13193600  1
  H  810  1  0.13909800  0.24174400  0.14443700  1
  H  817  1  0.20699500  0.74712900  0.75865000  1
  H  824  1  0.34307200  0.75927100  0.65461700  1
  H  825  1  0.29493000  0.69053900  0.66061000  1
  H  826  1  0.17191800  0.78927500  0.69959000  1
  H  827  1  0.25095900  0.70677800  0.68762800  1
  H  828  1  0.22034000  0.77447400  0.67573600  1
  H  836  1  0.36463600  0.72767600  0.62855900  1
  H  837  1  0.33361100  0.70471300  0.62259700  1
  H  839  1  0.16407400  0.78478600  0.76408700  1
  H  840  1  0.13891200  0.76090700  0.75153700  1
  H  865  1  0.27899500  0.42141600  0.38097500  1
  H  866  1  0.21485100  0.42720800  0.37998700  1
  H  867  1  0.14779400  0.42607700  0.37437200  1
  H  868  1  0.08561270  0.41711600  0.36619200  1
  H  869  1  0.11652800  0.35682400  0.32381800  1
  H  870  1  0.26923900  0.36156700  0.33371200  1
  H  871  1  0.19360300  0.39819800  0.29123600  1
  H  872  1  0.21002500  0.34496900  0.23734600  1
  H  873  1  0.20827600  0.31356400  0.26778600  1
  H  874  1  0.18957600  0.33850400  0.37605300  1
  H  875  1  0.20611800  0.28723200  0.30510600  1
  H  876  1  0.20465800  0.26927800  0.34494700  1
  H  879  1  0.05458470  0.37084100  0.32525000  1
  H  881  1  0.20266800  0.30361100  0.40046400  1
  H  883  1  0.22111200  0.40490300  0.24645200  1
  H  885  1  0.32558800  0.37090300  0.35511000  1
  H  910  1  0.27885400  0.94358900  0.91360600  1
  H  911  1  0.21470600  0.93780700  0.91457800  1
  H  912  1  0.14763600  0.93897100  0.92015600  1
  H  913  1  0.08545670  0.94789500  0.92839400  1
  H  914  1  0.11638000  0.00816353  0.97079700  1
  H  915  1  0.26908800  0.00345553  0.96084900  1
  H  916  1  0.19348300  0.96681700  0.00330489  1
  H  917  1  0.20994100  0.02002850  0.05720490  1
  H  918  1  0.20816900  0.05144450  0.02677690  1
  H  919  1  0.18946100  0.02652950  0.91850500  1
  H  920  1  0.20615000  0.07777450  0.98945400  1
  H  921  1  0.20471800  0.09573550  0.94961400  1
  H  924  1  0.05445070  0.99413400  0.96939100  1
  H  926  1  0.20272300  0.06141650  0.89411100  1
  H  928  1  0.22102500  0.96009900  0.04808490  1
  H  930  1  0.32545400  0.99410500  0.93947200  1
  H  955  1  0.27882200  0.94887500  0.38622400  1
  H  956  1  0.21467300  0.94986300  0.39200800  1
  H  957  1  0.14760300  0.95544600  0.39084300  1
  H  958  1  0.08542470  0.96364500  0.38188600  1
  H  959  1  0.11636100  0.00600253  0.32158700  1
  H  960  1  0.26906800  0.99610400  0.32634300  1
  H  961  1  0.19350700  0.03854350  0.36296100  1
  H  962  1  0.20995800  0.09243850  0.30974200  1
  H  963  1  0.20814200  0.06201050  0.27832800  1
  H  964  1  0.18940000  0.95374300  0.30325100  1
  H  965  1  0.20599500  0.02469450  0.25199100  1
  H  966  1  0.20454500  0.98485300  0.23403300  1
  H  969  1  0.05442370  0.00458553  0.33559500  1
  H  971  1  0.20252100  0.92933800  0.26836200  1
  H  973  1  0.22106100  0.08331650  0.36967100  1
  H  975  1  0.32544900  0.97478300  0.33571800  1
  H  1000  1  0.27882400  0.41617400  0.90829700  1
  H  1001  1  0.21467400  0.41517600  0.90254300  1
  H  1002  1  0.14761400  0.40958700  0.90373800  1
  H  1003  1  0.08544570  0.40136700  0.91271100  1
  H  1004  1  0.11644700  0.35899700  0.97298700  1
  H  1005  1  0.26914800  0.36894400  0.96818100  1
  H  1006  1  0.19352100  0.32645100  0.93160400  1
  H  1007  1  0.20998300  0.27257700  0.98484300  1
  H  1008  1  0.20823700  0.30302400  0.01623990  1
  H  1009  1  0.18942900  0.41127900  0.99127900  1
  H  1010  1  0.20611000  0.34035400  0.04256090  1
  H  1011  1  0.20460800  0.38019900  0.06050590  1
  H  1014  1  0.05449570  0.36041500  0.95902000  1
  H  1016  1  0.20248700  0.43570800  0.02615990  1
  H  1018  1  0.22106900  0.28166700  0.92491000  1
  H  1020  1  0.32548300  0.39034800  0.95880900  1
  H  1045  1  0.78203900  0.92644800  0.87423900  1
  H  1046  1  0.71756400  0.92859300  0.87832100  1
  H  1047  1  0.65058200  0.92265200  0.87931500  1
  H  1048  1  0.58851600  0.91126400  0.87462800  1
  H  1049  1  0.61880800  0.85454900  0.82739200  1
  H  1050  1  0.77187800  0.86433200  0.83002800  1
  H  1051  1  0.69273700  0.89822500  0.79213900  1
  H  1052  1  0.70841900  0.84568200  0.73748400  1
  H  1053  1  0.70872800  0.81400200  0.76763700  1
  H  1054  1  0.69542400  0.83772700  0.87650400  1
  H  1055  1  0.70854800  0.78728500  0.80463200  1
  H  1056  1  0.70951100  0.76890300  0.84430900  1
  H  1059  1  0.55741300  0.85957100  0.84015300  1
  H  1061  1  0.71052800  0.80240900  0.90014300  1
  H  1063  1  0.71880100  0.90573200  0.74737700  1
  H  1065  1  0.82924500  0.89081100  0.83324400  1
  H  1090  1  0.78171200  0.43834400  0.42026700  1
  H  1091  1  0.71722300  0.43633300  0.41621000  1
  H  1092  1  0.65026800  0.44238800  0.41526400  1
  H  1093  1  0.58825300  0.45386400  0.42002500  1
  H  1094  1  0.61883000  0.51051500  0.46725500  1
  H  1095  1  0.77187000  0.50049400  0.46446300  1
  H  1096  1  0.69263800  0.46672700  0.50238100  1
  H  1097  1  0.70849400  0.51921700  0.55706200  1
  H  1098  1  0.70886700  0.55091500  0.52692900  1
  H  1099  1  0.69543400  0.52727400  0.41805200  1
  H  1100  1  0.70867100  0.57766200  0.48995200  1
  H  1101  1  0.70963700  0.59606900  0.45028400  1
  H  1104  1  0.55738900  0.50555800  0.45462300  1
  H  1106  1  0.71061100  0.56260400  0.39443000  1
  H  1108  1  0.71865600  0.45915400  0.54713400  1
  H  1110  1  0.82910500  0.47377300  0.46125100  1
  H  1135  1  0.78207700  0.45553600  0.89122600  1
  H  1136  1  0.71760100  0.45146300  0.89336500  1
  H  1137  1  0.65062200  0.45047600  0.88741700  1
  H  1138  1  0.58855900  0.45518300  0.87603000  1
  H  1139  1  0.61887500  0.50242000  0.81932200  1
  H  1140  1  0.77194500  0.49974400  0.82910700  1
  H  1141  1  0.69276700  0.53764900  0.86299200  1
  H  1142  1  0.70835700  0.59231100  0.81044200  1
  H  1143  1  0.70868700  0.56215700  0.77876400  1
  H  1144  1  0.69544200  0.45328400  0.80249300  1
  H  1145  1  0.70852100  0.52515700  0.75204700  1
  H  1146  1  0.70944700  0.48548200  0.73366100  1
  H  1149  1  0.55747500  0.48966900  0.82434000  1
  H  1151  1  0.71042300  0.42963400  0.76716500  1
  H  1153  1  0.71875500  0.58242600  0.87049900  1
  H  1155  1  0.82930100  0.49651600  0.85557200  1
  H  1180  1  0.78216300  0.90936000  0.40331600  1
  H  1181  1  0.71769500  0.91348300  0.40115100  1
  H  1182  1  0.65070800  0.91450800  0.40705700  1
  H  1183  1  0.58862900  0.90986500  0.41843100  1
  H  1184  1  0.61881400  0.86266600  0.47519900  1
  H  1185  1  0.77189600  0.86519800  0.46545900  1
  H  1186  1  0.69275100  0.82736400  0.43154900  1
  H  1187  1  0.70833800  0.77270600  0.48410000  1
  H  1188  1  0.70863100  0.80285800  0.51578000  1
  H  1189  1  0.69551700  0.91173100  0.49203900  1
  H  1190  1  0.70843500  0.83985400  0.54249800  1
  H  1191  1  0.70947600  0.87953100  0.56087200  1
  H  1194  1  0.55743200  0.87546200  0.47014600  1
  H  1196  1  0.71056000  0.93537200  0.52735500  1
  H  1198  1  0.71876600  0.78260000  0.42405500  1
  H  1200  1  0.82929100  0.86837100  0.43901700  1
  H  1207  1  0.12023900  0.24907100  0.36701200  1
  H  1214  1  0.16172600  0.12146500  0.40821900  1
  H  1215  1  0.17771900  0.13166100  0.33341800  1
  H  1216  1  0.21488800  0.24411100  0.40831800  1
  H  1217  1  0.17865300  0.17457400  0.33915600  1
  H  1218  1  0.21713400  0.20141400  0.40114500  1
  H  1226  1  0.14620800  0.09249150  0.35346700  1
  H  1227  1  0.16205300  0.08591650  0.38279700  1
  H  1229  1  0.16188400  0.27762100  0.41424000  1
  H  1230  1  0.14061100  0.28514200  0.38698100  1
  H  1237  1  0.12020400  0.11593900  0.92748400  1
  H  1244  1  0.16173700  0.24356200  0.88635800  1
  H  1245  1  0.17766500  0.23334300  0.96116200  1
  H  1246  1  0.21494400  0.12092100  0.88627000  1
  H  1247  1  0.17859100  0.19043100  0.95541200  1
  H  1248  1  0.21716200  0.16361900  0.89345500  1
  H  1256  1  0.14620800  0.27252900  0.94112300  1
  H  1257  1  0.16205300  0.27910400  0.91179300  1
  H  1259  1  0.16197500  0.08740950  0.88028300  1
  H  1260  1  0.14062100  0.07988150  0.90751000  1
  H  1267  1  0.12009100  0.96277500  0.21380800  1
  H  1274  1  0.16166200  0.92156300  0.08621590  1
  H  1275  1  0.17762700  0.99636800  0.09640090  1
  H  1276  1  0.21476200  0.92148700  0.20886600  1
  H  1277  1  0.17853700  0.99063800  0.13931800  1
  H  1278  1  0.21702400  0.92865600  0.16617000  1
  H  1286  1  0.14616500  0.97630900  0.05722290  1
  H  1287  1  0.16201600  0.94697800  0.05066190  1
  H  1289  1  0.16175500  0.91555700  0.24236100  1
  H  1290  1  0.14046600  0.94281000  0.24988400  1
  H  1297  1  0.12014500  0.40221100  0.08074190  1
  H  1304  1  0.16172100  0.44343200  0.20832000  1
  H  1305  1  0.17774800  0.36863400  0.19812800  1
  H  1306  1  0.21477200  0.44355000  0.08565890  1
  H  1307  1  0.17865000  0.37436700  0.15521400  1
  H  1308  1  0.21706800  0.43637300  0.12835200  1
  H  1316  1  0.14625900  0.38868100  0.23730400  1
  H  1317  1  0.16209600  0.41801500  0.24387300  1
  H  1319  1  0.16172600  0.44945200  0.05218390  1
  H  1320  1  0.14048500  0.42218400  0.04466090  1
  H  1327  1  0.62470900  0.74986700  0.86746000  1
  H  1334  1  0.66019600  0.62135200  0.90821600  1
  H  1335  1  0.67734800  0.63126900  0.83349600  1
  H  1336  1  0.71961400  0.74274700  0.90818200  1
  H  1337  1  0.67994100  0.67415300  0.83925300  1
  H  1338  1  0.71964300  0.70002400  0.90098200  1
  H  1346  1  0.64465200  0.59251200  0.85319200  1
  H  1347  1  0.65935700  0.58579600  0.88276100  1
  H  1349  1  0.66881500  0.77740500  0.91454400  1
  H  1350  1  0.64683600  0.78535000  0.88767600  1
  H  1357  1  0.62477100  0.61513000  0.42714300  1
  H  1364  1  0.66025800  0.74363500  0.38631300  1
  H  1365  1  0.67735100  0.73374800  0.46104300  1
  H  1366  1  0.71965700  0.62223900  0.38639800  1
  H  1367  1  0.67995400  0.69086200  0.45530300  1
  H  1368  1  0.71968100  0.66496500  0.39357600  1
  H  1376  1  0.64464400  0.77249000  0.44131200  1
  H  1377  1  0.65939400  0.77919900  0.41175300  1
  H  1379  1  0.66883700  0.58757700  0.38006200  1
  H  1380  1  0.64690300  0.57963800  0.40694900  1
  H  1387  1  0.62467400  0.46240200  0.71461400  1
  H  1394  1  0.66005200  0.42153000  0.58612700  1
  H  1395  1  0.67735900  0.49624000  0.59598600  1
  H  1396  1  0.71948500  0.42158000  0.70751200  1
  H  1397  1  0.67995700  0.49051000  0.63887400  1
  H  1398  1  0.71953100  0.42875500  0.66478600  1
  H  1406  1  0.64460900  0.47654900  0.55725000  1
  H  1407  1  0.65924100  0.44695900  0.55055400  1
  H  1409  1  0.66867000  0.41528600  0.74216600  1
  H  1410  1  0.64676600  0.44218400  0.75010800  1
  H  1417  1  0.62476000  0.90269600  0.57992300  1
  H  1424  1  0.66028500  0.94345800  0.70841600  1
  H  1425  1  0.67739700  0.86873000  0.69852300  1
  H  1426  1  0.71969200  0.94339500  0.58702300  1
  H  1427  1  0.68000500  0.87447600  0.65563800  1
  H  1428  1  0.71973700  0.93619300  0.62974500  1
  H  1436  1  0.64469500  0.88844800  0.73726400  1
  H  1437  1  0.65941800  0.91801200  0.74397800  1
  H  1439  1  0.66888200  0.94977000  0.55238700  1
  H  1440  1  0.64689500  0.92290800  0.54443600  1
  H  1447  1  0.98998600  0.36537700  0.39696300  1
  H  1454  1  0.84674600  0.46176800  0.38055800  1
  H  1455  1  0.90092800  0.46678300  0.44729000  1
  H  1456  1  0.01780170  0.41925600  0.34628900  1
  H  1457  1  0.94753500  0.44113100  0.43209000  1
  H  1458  1  0.97179300  0.44486500  0.36183800  1
  H  1466  1  0.82267100  0.48843000  0.41027100  1
  H  1467  1  0.85239400  0.49929300  0.43237300  1
  H  1469  1  0.02293170  0.35601700  0.35559700  1
  H  1470  1  0.05404270  0.36787000  0.37630900  1
  H  1477  1  0.98981200  0.99959700  0.89768400  1
  H  1484  1  0.84672700  0.90307600  0.91397800  1
  H  1485  1  0.90104100  0.89809400  0.84729000  1
  H  1486  1  0.01768570  0.94570800  0.94833200  1
  H  1487  1  0.94755900  0.92380400  0.86251700  1
  H  1488  1  0.97172600  0.92007400  0.93275900  1
  H  1496  1  0.82275900  0.87637900  0.88425900  1
  H  1497  1  0.85261200  0.86550600  0.86224000  1
  H  1499  1  0.02270670  0.00894453  0.93908500  1
  H  1500  1  0.05384170  0.99716000  0.91834700  1
  H  1507  1  0.98986000  0.93284300  0.33016200  1
  H  1514  1  0.84675100  0.94910500  0.42668300  1
  H  1515  1  0.90111600  0.88243900  0.43167800  1
  H  1516  1  0.01765370  0.98353000  0.38403200  1
  H  1517  1  0.94761600  0.89767600  0.40595800  1
  H  1518  1  0.97171200  0.96793700  0.40966900  1
  H  1526  1  0.82282900  0.91938900  0.45340800  1
  H  1527  1  0.85270300  0.89738200  0.46427200  1
  H  1529  1  0.02270670  0.97425800  0.32080100  1
  H  1530  1  0.05386270  0.95354600  0.33259700  1
  H  1537  1  0.98990800  0.43215200  0.96440800  1
  H  1544  1  0.84676500  0.41579700  0.86794000  1
  H  1545  1  0.90110800  0.48246600  0.86286800  1
  H  1546  1  0.01769970  0.38142900  0.91056800  1
  H  1547  1  0.94762900  0.46725800  0.88858600  1
  H  1548  1  0.97174700  0.39699900  0.88492800  1
  H  1556  1  0.82281800  0.44548600  0.84119800  1
  H  1557  1  0.85267300  0.46749200  0.83030300  1
  H  1559  1  0.02275770  0.39074100  0.97379000  1
  H  1560  1  0.05391070  0.41145100  0.96198400  1
  H  1567  1  0.39476300  0.99318300  0.40155900  1
  H  1574  1  0.53092300  0.88923500  0.38928500  1
  H  1575  1  0.48280000  0.89511200  0.45803400  1
  H  1576  1  0.35973300  0.93416400  0.35934200  1
  H  1577  1  0.43878500  0.92212100  0.44183800  1
  H  1578  1  0.40816000  0.91030300  0.37412500  1
  H  1586  1  0.55253800  0.86315500  0.42084100  1
  H  1587  1  0.52154800  0.85713800  0.44381300  1
  H  1589  1  0.35185800  0.99865800  0.36390700  1
  H  1590  1  0.32668500  0.98606700  0.38775700  1
  H  1597  1  0.39486600  0.37190400  0.89300700  1
  H  1604  1  0.53094200  0.47590500  0.90520800  1
  H  1605  1  0.48282700  0.46996600  0.83646200  1
  H  1606  1  0.35976100  0.43094000  0.93517800  1
  H  1607  1  0.43882600  0.44295700  0.85267900  1
  H  1608  1  0.40817100  0.45481100  0.92038400  1
  H  1616  1  0.55255400  0.50196400  0.87363000  1
  H  1617  1  0.52154800  0.50796200  0.85066600  1
  H  1619  1  0.35193600  0.36644400  0.93065600  1
  H  1620  1  0.32678000  0.37900300  0.90678000  1
  H  1627  1  0.39503500  0.43668300  0.33667700  1
  H  1634  1  0.53084300  0.42467100  0.44088000  1
  H  1635  1  0.48272500  0.49339600  0.43472600  1
  H  1636  1  0.35980300  0.39460200  0.39573900  1
  H  1637  1  0.43881700  0.47711700  0.40768700  1
  H  1638  1  0.40816100  0.40942900  0.41963500  1
  H  1646  1  0.55237400  0.45631500  0.46690100  1
  H  1647  1  0.52130900  0.47926600  0.47281200  1
  H  1649  1  0.35212400  0.39902800  0.33122700  1
  H  1650  1  0.32693300  0.42291800  0.34372800  1
  H  1657  1  0.39483000  0.92830300  0.95794100  1
  H  1664  1  0.53090700  0.94044500  0.85390800  1
  H  1665  1  0.48276500  0.87171300  0.85990100  1
  H  1666  1  0.35975300  0.97044900  0.89888100  1
  H  1667  1  0.43879400  0.88795200  0.88691900  1
  H  1668  1  0.40817500  0.95564800  0.87502700  1
  H  1676  1  0.55247100  0.90885000  0.82785000  1
  H  1677  1  0.52144600  0.88588700  0.82188800  1
  H  1679  1  0.35190900  0.96596000  0.96337800  1
  H  1680  1  0.32674700  0.94208100  0.95082800  1
  C  1  1  0.00588800  0.15687500  0.13863900  1
  C  2  1  0.01068600  0.14204200  0.11833400  1
  C  3  1  0.01205000  0.15659400  0.09782600  1
  C  4  1  0.00812200  0.18087700  0.10479100  1
  C  5  1  0.00860400  0.19928700  0.08698100  1
  C  6  1  0.01373700  0.19303300  0.06230100  1
  C  7  1  0.01831400  0.16846600  0.05580200  1
  C  8  1  0.01721700  0.15009900  0.07343900  1
  C  9  1  0.01424000  0.11677100  0.12066700  1
  C  10  1  0.01325300  0.10638900  0.14395200  1
  C  11  1  0.00824500  0.12092600  0.16480000  1
  C  12  1  0.00462200  0.14638800  0.16194800  1
  C  13  1  0.03263200  0.19783400  0.14333800  1
  C  14  1  0.01723900  0.21675400  0.15667500  1
  C  15  1  0.98018100  0.21553500  0.15436400  1
  C  16  1  0.97143300  0.19566000  0.13974000  1
  C  17  1  0.95342000  0.23040900  0.16443900  1
  C  18  1  0.91720800  0.22506600  0.15963600  1
  C  19  1  0.90754000  0.20492400  0.14517500  1
  C  20  1  0.93504400  0.19025200  0.13507600  1
  C  21  1  0.07024900  0.19455700  0.14366800  1
  C  22  1  0.09219000  0.21034100  0.15754800  1
  C  23  1  0.07582700  0.22913400  0.17105000  1
  C  24  1  0.03845200  0.23261800  0.17053500  1
  C  37  1  0.00438800  0.18285700  0.13155000  1
  C  46  1  0.00569400  0.84580900  0.75734200  1
  C  47  1  0.01052900  0.86063600  0.77764700  1
  C  48  1  0.01196400  0.84607300  0.79814500  1
  C  49  1  0.00800500  0.82179400  0.79117800  1
  C  50  1  0.00849900  0.80337600  0.80898200  1
  C  51  1  0.01365100  0.80962500  0.83366100  1
  C  52  1  0.01822900  0.83419000  0.84016700  1
  C  53  1  0.01713600  0.85256100  0.82253500  1
  C  54  1  0.01418100  0.88590100  0.77531400  1
  C  55  1  0.01322200  0.89628400  0.75202900  1
  C  56  1  0.00818000  0.88175400  0.73118200  1
  C  57  1  0.00450700  0.85629500  0.73403000  1
  C  58  1  0.03247700  0.80486200  0.75260900  1
  C  59  1  0.01707900  0.78596700  0.73924000  1
  C  60  1  0.98002500  0.78715200  0.74159800  1
  C  61  1  0.97128300  0.80701100  0.75624500  1
  C  62  1  0.95326400  0.77227400  0.73153100  1
  C  63  1  0.91705200  0.77759500  0.73636700  1
  C  64  1  0.90738900  0.79772500  0.75084700  1
  C  65  1  0.93489400  0.81239700  0.76094300  1
  C  66  1  0.07009500  0.80813000  0.75229300  1
  C  67  1  0.09204000  0.79233900  0.73842100  1
  C  68  1  0.07567900  0.77354600  0.72491900  1
  C  69  1  0.03829800  0.77008600  0.72540400  1
  C  82  1  0.00423400  0.81982300  0.76442000  1
  C  91  1  0.00570200  0.81069400  0.10350800  1
  C  92  1  0.01048700  0.83100200  0.08867700  1
  C  93  1  0.01190100  0.85150300  0.10323700  1
  C  94  1  0.00797800  0.84453300  0.12751800  1
  C  95  1  0.00849100  0.86233900  0.14593400  1
  C  96  1  0.01366400  0.88701700  0.13968500  1
  C  97  1  0.01822700  0.89352100  0.11511800  1
  C  98  1  0.01710200  0.87588700  0.09674700  1
  C  99  1  0.01411300  0.82866600  0.06341000  1
  C  100  1  0.01311600  0.80538400  0.05302600  1
  C  101  1  0.00808500  0.78453400  0.06755800  1
  C  102  1  0.00444300  0.78738600  0.09301900  1
  C  103  1  0.03245100  0.80595800  0.14445200  1
  C  104  1  0.01705500  0.79264900  0.16339000  1
  C  105  1  0.98000100  0.79497500  0.16217700  1
  C  106  1  0.97125900  0.80959400  0.14229700  1
  C  107  1  0.95323400  0.78491500  0.17705700  1
  C  108  1  0.91702300  0.78972800  0.17171600  1
  C  109  1  0.90736300  0.80419000  0.15157100  1
  C  110  1  0.93487000  0.81427900  0.13689800  1
  C  111  1  0.07007300  0.80566100  0.14120100  1
  C  112  1  0.09201100  0.79179000  0.15699500  1
  C  113  1  0.07565000  0.77830400  0.17579700  1
  C  114  1  0.03826900  0.77879500  0.17925900  1
  C  127  1  0.00421500  0.81777600  0.12949100  1
  C  136  1  0.00579200  0.19198400  0.79245100  1
  C  137  1  0.01061800  0.17168600  0.80728700  1
  C  138  1  0.01202900  0.15117700  0.79273700  1
  C  139  1  0.00806400  0.15813300  0.76845500  1
  C  140  1  0.00854300  0.14031800  0.75004800  1
  C  141  1  0.01369100  0.11564100  0.75630900  1
  C  142  1  0.01828200  0.10914900  0.78087600  1
  C  143  1  0.01718200  0.12679100  0.79923800  1
  C  144  1  0.01419700  0.17402700  0.83255600  1
  C  145  1  0.01318600  0.19731300  0.84293200  1
  C  146  1  0.00814200  0.21815500  0.82839200  1
  C  147  1  0.00450000  0.21529600  0.80293200  1
  C  148  1  0.03251400  0.19669500  0.75148700  1
  C  149  1  0.01709300  0.21004400  0.73258800  1
  C  150  1  0.98004100  0.20767900  0.73379000  1
  C  151  1  0.97132300  0.19305500  0.75367000  1
  C  152  1  0.95326100  0.21775300  0.71893200  1
  C  153  1  0.91705500  0.21293000  0.72428500  1
  C  154  1  0.90741600  0.19845900  0.74442800  1
  C  155  1  0.93493900  0.18837000  0.75908600  1
  C  156  1  0.07013300  0.19704100  0.75474900  1
  C  157  1  0.09205700  0.21089900  0.73893400  1
  C  158  1  0.07567100  0.22437800  0.72013600  1
  C  159  1  0.03829000  0.22386500  0.71667600  1
  C  172  1  0.00429100  0.18488900  0.76647100  1
  C  181  1  0.50983700  0.65654800  0.63900200  1
  C  182  1  0.51349500  0.64193200  0.61843300  1
  C  183  1  0.51293900  0.65665800  0.59803800  1
  C  184  1  0.50842600  0.68080900  0.60530300  1
  C  185  1  0.50766900  0.69937700  0.58765200  1
  C  186  1  0.51211000  0.69341300  0.56283300  1
  C  187  1  0.51702300  0.66896000  0.55602400  1
  C  188  1  0.51712200  0.65042900  0.57349800  1
  C  189  1  0.51763800  0.61666800  0.62040900  1
  C  190  1  0.51804000  0.60603500  0.64358700  1
  C  191  1  0.51400400  0.62033700  0.66468500  1
  C  192  1  0.51006500  0.64581500  0.66221700  1
  C  193  1  0.53498600  0.69816900  0.64298700  1
  C  194  1  0.51968000  0.71660300  0.65705000  1
  C  195  1  0.48262000  0.71409200  0.65661800  1
  C  196  1  0.47373800  0.69439100  0.64180200  1
  C  197  1  0.45606000  0.72739900  0.66888000  1
  C  198  1  0.41990200  0.72065600  0.66607500  1
  C  199  1  0.40999200  0.70116300  0.65080200  1
  C  200  1  0.43736000  0.68789100  0.63875900  1
  C  201  1  0.57272700  0.69662500  0.64089300  1
  C  202  1  0.59469800  0.71399800  0.65265700  1
  C  203  1  0.57857100  0.73263900  0.66642600  1
  C  204  1  0.54106100  0.73394100  0.66890000  1
  C  217  1  0.50664100  0.68253500  0.63218600  1
  C  226  1  0.50991500  0.34607600  0.25696800  1
  C  227  1  0.51361500  0.36067500  0.27754600  1
  C  228  1  0.51297700  0.34594200  0.29793500  1
  C  229  1  0.50846300  0.32179500  0.29065200  1
  C  230  1  0.50757200  0.30322300  0.30829800  1
  C  231  1  0.51208000  0.30916500  0.33311500  1
  C  232  1  0.51706900  0.33360600  0.33993800  1
  C  233  1  0.51721100  0.35214900  0.32247700  1
  C  234  1  0.51775800  0.38594000  0.27558500  1
  C  235  1  0.51817400  0.39658700  0.25241500  1
  C  236  1  0.51410600  0.38230200  0.23130800  1
  C  237  1  0.51012400  0.35682500  0.23376200  1
  C  238  1  0.53489700  0.30441000  0.25294400  1
  C  239  1  0.51950000  0.28600600  0.23888900  1
  C  240  1  0.48245100  0.28858100  0.23934800  1
  C  241  1  0.47366800  0.30830300  0.25416100  1
  C  242  1  0.45581900  0.27531000  0.22711900  1
  C  243  1  0.41969000  0.28210200  0.22996600  1
  C  244  1  0.40987400  0.30160100  0.24526100  1
  C  245  1  0.43731400  0.31483800  0.25726900  1
  C  246  1  0.57264900  0.30588400  0.25501000  1
  C  247  1  0.59452900  0.28845600  0.24325500  1
  C  248  1  0.57830800  0.26984000  0.22950100  1
  C  249  1  0.54079200  0.26861900  0.22703600  1
  C  262  1  0.50662800  0.32009000  0.26377000  1
  C  271  1  0.50989900  0.31032000  0.60319800  1
  C  272  1  0.51353200  0.33088800  0.58858100  1
  C  273  1  0.51298500  0.35128500  0.60330900  1
  C  274  1  0.50852200  0.34401600  0.62746300  1
  C  275  1  0.50770100  0.36167100  0.64602800  1
  C  276  1  0.51210200  0.38649200  0.64006000  1
  C  277  1  0.51700400  0.39330200  0.61560700  1
  C  278  1  0.51713100  0.37582600  0.59707800  1
  C  279  1  0.51763200  0.32891500  0.56331400  1
  C  280  1  0.51801600  0.30573800  0.55268000  1
  C  281  1  0.51399600  0.28463800  0.56698300  1
  C  282  1  0.51008400  0.28710600  0.59246400  1
  C  283  1  0.53504500  0.30632500  0.64481900  1
  C  284  1  0.51973300  0.29226400  0.66325200  1
  C  285  1  0.48267400  0.29270800  0.66074300  1
  C  286  1  0.47380000  0.30752900  0.64104400  1
  C  287  1  0.45610300  0.28045700  0.67405500  1
  C  288  1  0.41995000  0.28326500  0.66730700  1
  C  289  1  0.41005100  0.29853800  0.64780900  1
  C  290  1  0.43742400  0.31057900  0.63454100  1
  C  291  1  0.57278900  0.30840500  0.64327400  1
  C  292  1  0.59475200  0.29664500  0.66065400  1
  C  293  1  0.57861700  0.28288100  0.67929500  1
  C  294  1  0.54110600  0.28040600  0.68058900  1
  C  307  1  0.50670600  0.31713300  0.62918600  1
  C  316  1  0.50987200  0.69234600  0.29275900  1
  C  317  1  0.51345700  0.67177500  0.30738000  1
  C  318  1  0.51283400  0.65137500  0.29265900  1
  C  319  1  0.50838300  0.65864400  0.26850400  1
  C  320  1  0.50761800  0.64099000  0.24993700  1
  C  321  1  0.51205100  0.61617100  0.25590300  1
  C  322  1  0.51694000  0.60936300  0.28035800  1
  C  323  1  0.51703100  0.62683700  0.29888800  1
  C  324  1  0.51757600  0.67374800  0.33264400  1
  C  325  1  0.51803700  0.69692800  0.34327400  1
  C  326  1  0.51405300  0.71802900  0.32896800  1
  C  327  1  0.51013000  0.71556100  0.30349000  1
  C  328  1  0.53503100  0.69629700  0.25113700  1
  C  329  1  0.51976000  0.71035800  0.23269100  1
  C  330  1  0.48269800  0.70995800  0.23519500  1
  C  331  1  0.47378400  0.69518100  0.25491800  1
  C  332  1  0.45616200  0.72221400  0.22186200  1
  C  333  1  0.41999600  0.71943700  0.22859500  1
  C  334  1  0.41005100  0.70418700  0.24810000  1
  C  335  1  0.43739200  0.69214100  0.26139200  1
  C  336  1  0.57276700  0.69417700  0.25269100  1
  C  337  1  0.59476800  0.70591400  0.23531600  1
  C  338  1  0.57867600  0.71968100  0.21666100  1
  C  339  1  0.54116800  0.72217800  0.21534600  1
  C  352  1  0.50666000  0.68552800  0.26677300  1
  C  361  1  0.97973300  0.06951400  0.18874900  1
  C  362  1  0.00771300  0.05520000  0.19838100  1
  C  363  1  0.00885400  0.03006200  0.19429600  1
  C  364  1  0.98191400  0.01839100  0.18054000  1
  C  365  1  0.95387000  0.03258600  0.17039400  1
  C  366  1  0.95322600  0.05794000  0.17456000  1
  C  368  1  0.98278900  0.99265200  0.17796300  1
  C  369  1  0.97802300  0.97690600  0.19808800  1
  C  370  1  0.97780900  0.95147100  0.19438000  1
  C  371  1  0.98214200  0.94131100  0.17106900  1
  C  372  1  0.98698600  0.95722000  0.15128900  1
  C  373  1  0.98738300  0.98246400  0.15467000  1
  C  385  1  0.98040300  0.91467800  0.16686300  1
  C  388  1  0.97702200  0.09566300  0.19523000  1
  C  391  1  0.97974300  0.93316200  0.70720800  1
  C  392  1  0.00773500  0.94748300  0.69760000  1
  C  393  1  0.00887400  0.97261800  0.70170700  1
  C  394  1  0.98189500  0.98428200  0.71543300  1
  C  395  1  0.95383600  0.97008100  0.72555200  1
  C  396  1  0.95321300  0.94472600  0.72138400  1
  C  398  1  0.98276200  0.01001800  0.71802000  1
  C  399  1  0.97802100  0.02577000  0.69789700  1
  C  400  1  0.97781100  0.05120400  0.70161300  1
  C  401  1  0.98211800  0.06135600  0.72493000  1
  C  402  1  0.98694000  0.04544200  0.74470700  1
  C  403  1  0.98732900  0.02019800  0.74131900  1
  C  415  1  0.98039800  0.08798800  0.72914100  1
  C  418  1  0.97705500  0.90701500  0.70071500  1
  C  421  1  0.97960100  0.76059200  0.01614500  1
  C  422  1  0.00759000  0.75095900  0.00183500  1
  C  423  1  0.00874700  0.75505000  0.97669800  1
  C  424  1  0.98180100  0.76879400  0.96502100  1
  C  425  1  0.95374400  0.77893200  0.97920800  1
  C  426  1  0.95309800  0.77477600  0.00456500  1
  C  428  1  0.98268400  0.77136500  0.93928200  1
  C  429  1  0.97794000  0.75123400  0.92354000  1
  C  430  1  0.97775000  0.75493800  0.89810300  1
  C  431  1  0.98206700  0.77824900  0.88794100  1
  C  432  1  0.98690000  0.79803200  0.90384600  1
  C  433  1  0.98727300  0.79465600  0.92909100  1
  C  445  1  0.98035500  0.78244900  0.86130700  1
  C  448  1  0.97688300  0.75410200  0.04229000  1
  C  451  1  0.97963300  0.24207000  0.87981200  1
  C  452  1  0.00762100  0.25171500  0.89411100  1
  C  453  1  0.00880200  0.24761700  0.91924700  1
  C  454  1  0.98187400  0.23386100  0.93093200  1
  C  455  1  0.95382200  0.22370600  0.91675000  1
  C  456  1  0.95316500  0.22785700  0.89139300  1
  C  458  1  0.98277300  0.23129000  0.95666900  1
  C  459  1  0.97800700  0.25141600  0.97241300  1
  C  460  1  0.97782700  0.24771300  0.99785000  1
  C  461  1  0.98216900  0.22440300  0.00801200  1
  C  462  1  0.98702100  0.20462300  0.99210300  1
  C  463  1  0.98738600  0.20800000  0.96685800  1
  C  475  1  0.98044600  0.22019800  0.03464500  1
  C  478  1  0.97689100  0.24856100  0.85366700  1
  C  481  1  0.48452500  0.56922700  0.68892100  1
  C  482  1  0.51193600  0.55428600  0.69834900  1
  C  483  1  0.51177200  0.52913700  0.69425200  1
  C  484  1  0.48410400  0.51809700  0.68063800  1
  C  485  1  0.45665600  0.53291800  0.67065800  1
  C  486  1  0.45728400  0.55826600  0.67487900  1
  C  488  1  0.48371200  0.49235900  0.67802500  1
  C  489  1  0.47807700  0.47670600  0.69811800  1
  C  490  1  0.47681800  0.45128700  0.69439300  1
  C  491  1  0.48099900  0.44105100  0.67110100  1
  C  492  1  0.48666900  0.45687400  0.65135100  1
  C  493  1  0.48804800  0.48210500  0.65474100  1
  C  505  1  0.47852000  0.41443800  0.66690500  1
  C  508  1  0.48317800  0.59540500  0.69549000  1
  C  511  1  0.48457900  0.43341600  0.20709000  1
  C  512  1  0.51197000  0.44835900  0.19763900  1
  C  513  1  0.51182000  0.47350600  0.20173700  1
  C  514  1  0.48414700  0.48455200  0.21534400  1
  C  515  1  0.45670700  0.46973200  0.22533800  1
  C  516  1  0.45734500  0.44438100  0.22114100  1
  C  518  1  0.48375200  0.51029200  0.21794800  1
  C  519  1  0.47813900  0.52593600  0.19784700  1
  C  520  1  0.47687800  0.55135800  0.20155900  1
  C  521  1  0.48103100  0.56160400  0.22484900  1
  C  522  1  0.48669100  0.54578700  0.24460700  1
  C  523  1  0.48807200  0.52055700  0.24122800  1
  C  535  1  0.47853600  0.58821800  0.22903600  1
  C  538  1  0.48322900  0.40723700  0.20053100  1
  C  541  1  0.48445300  0.26043900  0.51586900  1
  C  542  1  0.51183600  0.25096900  0.50092900  1
  C  543  1  0.51168600  0.25505800  0.47578100  1
  C  544  1  0.48404500  0.26868800  0.46473100  1
  C  545  1  0.45661600  0.27870100  0.47955000  1
  C  546  1  0.45724300  0.27450300  0.50490200  1
  C  548  1  0.48365000  0.27128200  0.43899200  1
  C  549  1  0.47797500  0.25118300  0.42335500  1
  C  550  1  0.47672200  0.25488900  0.39793300  1
  C  551  1  0.48093200  0.27817200  0.38768000  1
  C  552  1  0.48665600  0.29792700  0.40348700  1
  C  553  1  0.48803000  0.29455400  0.42871900  1
  C  565  1  0.47845000  0.28235000  0.36106400  1
  C  568  1  0.48308700  0.25387300  0.54204700  1
  C  571  1  0.48460000  0.74225000  0.38008700  1
  C  572  1  0.51202100  0.75167500  0.39502200  1
  C  573  1  0.51187700  0.74756700  0.42016800  1
  C  574  1  0.48419500  0.73397000  0.43121600  1
  C  575  1  0.45673400  0.72399700  0.41640000  1
  C  576  1  0.45736700  0.72820200  0.39104900  1
  C  578  1  0.48380300  0.73136700  0.45695400  1
  C  579  1  0.47817900  0.75146500  0.47260000  1
  C  580  1  0.47692000  0.74775000  0.49802200  1
  C  581  1  0.48107700  0.72445900  0.50826400  1
  C  582  1  0.48675000  0.70470400  0.49244700  1
  C  583  1  0.48812600  0.70808400  0.46721700  1
  C  595  1  0.47857600  0.72026800  0.53487800  1
  C  598  1  0.48324000  0.74883200  0.35391300  1
  C  601  1  0.82074700  0.20857200  0.17094900  1
  C  602  1  0.81471400  0.23185100  0.16106400  1
  C  603  1  0.78745700  0.24695000  0.17018600  1
  C  604  1  0.76516600  0.23928700  0.18945100  1
  C  605  1  0.77083100  0.21598600  0.19965500  1
  C  606  1  0.79852300  0.20105600  0.19031700  1
  C  608  1  0.73719000  0.25486800  0.19780200  1
  C  609  1  0.70755500  0.26107700  0.18285600  1
  C  610  1  0.68029500  0.27641800  0.19212000  1
  C  611  1  0.68167900  0.28567800  0.21598600  1
  C  612  1  0.71123100  0.27923200  0.23063900  1
  C  613  1  0.73858000  0.26411300  0.22168500  1
  C  625  1  0.65271000  0.30157100  0.22566900  1
  C  628  1  0.84877700  0.19152600  0.16178800  1
  C  631  1  0.82059900  0.79404900  0.72510400  1
  C  632  1  0.81459400  0.77076100  0.73497700  1
  C  633  1  0.78736800  0.75564600  0.72583900  1
  C  634  1  0.76507800  0.76330600  0.70657300  1
  C  635  1  0.77071300  0.78661600  0.69638400  1
  C  636  1  0.79837500  0.80156300  0.70573600  1
  C  638  1  0.73713900  0.74770700  0.69820200  1
  C  639  1  0.70749300  0.74147300  0.71313000  1
  C  640  1  0.68028600  0.72609800  0.70385100  1
  C  641  1  0.68173300  0.71683100  0.67998600  1
  C  642  1  0.71129500  0.72330500  0.66535600  1
  C  643  1  0.73859300  0.73845400  0.67432300  1
  C  655  1  0.65284100  0.70088100  0.67029600  1
  C  658  1  0.84859200  0.81111200  0.73428400  1
  C  661  1  0.82060700  0.77840100  0.15523600  1
  C  662  1  0.81458600  0.78827700  0.17852000  1
  C  663  1  0.78736800  0.77913000  0.19363400  1
  C  664  1  0.76510200  0.75984700  0.18598200  1
  C  665  1  0.77075600  0.74965500  0.16267500  1
  C  666  1  0.79841000  0.75901400  0.14772900  1
  C  668  1  0.73716800  0.75146800  0.20158200  1
  C  669  1  0.70750900  0.76638600  0.20781500  1
  C  670  1  0.68031900  0.75710300  0.22319900  1
  C  671  1  0.68178400  0.73324200  0.23246900  1
  C  672  1  0.71135400  0.71861800  0.22599400  1
  C  673  1  0.73864400  0.72759300  0.21084000  1
  C  685  1  0.65291100  0.72354700  0.24843500  1
  C  688  1  0.84859400  0.78759100  0.13817200  1
  C  691  1  0.82065500  0.22423100  0.74076700  1
  C  692  1  0.81463400  0.21433900  0.71749000  1
  C  693  1  0.78740900  0.22347400  0.70237300  1
  C  694  1  0.76513900  0.24275800  0.71001800  1
  C  695  1  0.77079900  0.25297100  0.73331500  1
  C  696  1  0.79846100  0.24362400  0.74826100  1
  C  698  1  0.73719500  0.25111900  0.69441700  1
  C  699  1  0.70753600  0.23619400  0.68820900  1
  C  700  1  0.68033200  0.24545900  0.67282500  1
  C  701  1  0.68178600  0.26931300  0.66353200  1
  C  702  1  0.71135400  0.28394600  0.66998700  1
  C  703  1  0.73865500  0.27498700  0.68514100  1
  C  715  1  0.65289700  0.27898900  0.64756800  1
  C  718  1  0.84864500  0.21505500  0.75783500  1
  C  721  1  0.18481200  0.78504500  0.17956600  1
  C  722  1  0.18961600  0.76084900  0.17179300  1
  C  723  1  0.21825600  0.74673800  0.18051600  1
  C  724  1  0.24315300  0.75629300  0.19731900  1
  C  725  1  0.23891700  0.78059400  0.20525300  1
  C  726  1  0.20990400  0.79457500  0.19626600  1
  C  728  1  0.27087600  0.74096200  0.20647200  1
  C  729  1  0.29804500  0.73124700  0.19125400  1
  C  730  1  0.32377600  0.71509400  0.20113700  1
  C  731  1  0.32321000  0.70843000  0.22586700  1
  C  732  1  0.29637600  0.71856000  0.24081400  1
  C  733  1  0.27055700  0.73449400  0.23126500  1
  C  745  1  0.34912000  0.69056300  0.23602500  1
  C  748  1  0.15378900  0.80041900  0.17198500  1
  C  751  1  0.18487600  0.21770400  0.71639400  1
  C  752  1  0.18964700  0.24191000  0.72414500  1
  C  753  1  0.21829200  0.25602400  0.71542800  1
  C  754  1  0.24319700  0.24646900  0.69862700  1
  C  755  1  0.23899000  0.22215900  0.69071100  1
  C  756  1  0.20998900  0.20817200  0.69970900  1
  C  758  1  0.27090900  0.26180500  0.68946600  1
  C  759  1  0.29807200  0.27153600  0.70467500  1
  C  760  1  0.32379800  0.28768600  0.69478000  1
  C  761  1  0.32322900  0.29433100  0.67004700  1
  C  762  1  0.29640300  0.28418500  0.65510600  1
  C  763  1  0.27058100  0.26826000  0.66466900  1
  C  775  1  0.34913100  0.31219800  0.65987300  1
  C  778  1  0.15385900  0.20232400  0.72397500  1
  C  781  1  0.18498800  0.23287100  0.16436900  1
  C  782  1  0.18972000  0.22514400  0.18858600  1
  C  783  1  0.21833000  0.23388600  0.20271700  1
  C  784  1  0.24325600  0.25067200  0.19316200  1
  C  785  1  0.23909600  0.25855500  0.16883800  1
  C  786  1  0.21012500  0.24953900  0.15483600  1
  C  788  1  0.27091700  0.25987000  0.20851900  1
  C  789  1  0.29805600  0.24468600  0.21832000  1
  C  790  1  0.32372200  0.25461800  0.23448700  1
  C  791  1  0.32312400  0.27936600  0.24108200  1
  C  792  1  0.29633100  0.29428000  0.23086100  1
  C  793  1  0.27056000  0.28468000  0.21492300  1
  C  805  1  0.34895700  0.28957900  0.25896900  1
  C  808  1  0.15400700  0.22526600  0.14897100  1
  C  811  1  0.18485200  0.76979400  0.73166300  1
  C  812  1  0.18964900  0.77755000  0.70746000  1
  C  813  1  0.21830100  0.76882600  0.69335500  1
  C  814  1  0.24319400  0.75202600  0.70291900  1
  C  815  1  0.23897300  0.74411800  0.72723100  1
  C  816  1  0.20996800  0.75312200  0.74121100  1
  C  818  1  0.27090300  0.74284800  0.68758900  1
  C  819  1  0.29806700  0.75804800  0.67783900  1
  C  820  1  0.32377300  0.74814000  0.66168500  1
  C  821  1  0.32318800  0.72340100  0.65505300  1
  C  822  1  0.29637900  0.70846800  0.66523000  1
  C  823  1  0.27056800  0.71804500  0.68115400  1
  C  835  1  0.34905900  0.71321900  0.63717000  1
  C  838  1  0.15383400  0.77738900  0.74703500  1
  C  841  1  0.19372300  0.33804900  0.33793000  1
  C  842  1  0.19852100  0.32321600  0.31762500  1
  C  843  1  0.19988500  0.33776800  0.29711700  1
  C  844  1  0.19595700  0.36205100  0.30408200  1
  C  845  1  0.19643900  0.38046100  0.28627200  1
  C  846  1  0.20157200  0.37420700  0.26159200  1
  C  847  1  0.20614900  0.34964000  0.25509300  1
  C  848  1  0.20505200  0.33127300  0.27273000  1
  C  849  1  0.20207500  0.29794500  0.31995800  1
  C  850  1  0.20108800  0.28756300  0.34324300  1
  C  851  1  0.19608000  0.30210000  0.36409100  1
  C  852  1  0.19245700  0.32756200  0.36123900  1
  C  853  1  0.22046700  0.37900800  0.34262900  1
  C  854  1  0.20507400  0.39792800  0.35596600  1
  C  855  1  0.16801600  0.39670900  0.35365500  1
  C  856  1  0.15926800  0.37683400  0.33903100  1
  C  857  1  0.14125500  0.41158300  0.36373000  1
  C  858  1  0.10504300  0.40624000  0.35892700  1
  C  859  1  0.09537470  0.38609800  0.34446600  1
  C  860  1  0.12287900  0.37142600  0.33436700  1
  C  861  1  0.25808400  0.37573100  0.34295900  1
  C  862  1  0.28002500  0.39151500  0.35683900  1
  C  863  1  0.26366200  0.41030800  0.37034100  1
  C  864  1  0.22628700  0.41379200  0.36982600  1
  C  877  1  0.19222300  0.36403100  0.33084100  1
  C  886  1  0.19352900  0.02698250  0.95663300  1
  C  887  1  0.19836400  0.04180950  0.97693800  1
  C  888  1  0.19979900  0.02724650  0.99743600  1
  C  889  1  0.19584000  0.00296753  0.99046900  1
  C  890  1  0.19633400  0.98455000  0.00827289  1
  C  891  1  0.20148600  0.99079900  0.03295190  1
  C  892  1  0.20606400  0.01536350  0.03945790  1
  C  893  1  0.20497100  0.03373450  0.02182590  1
  C  894  1  0.20201600  0.06707450  0.97460500  1
  C  895  1  0.20105700  0.07745750  0.95132000  1
  C  896  1  0.19601500  0.06292750  0.93047300  1
  C  897  1  0.19234200  0.03746850  0.93332100  1
  C  898  1  0.22031200  0.98603600  0.95190000  1
  C  899  1  0.20491400  0.96714100  0.93853100  1
  C  900  1  0.16786000  0.96832600  0.94088900  1
  C  901  1  0.15911800  0.98818500  0.95553600  1
  C  902  1  0.14109900  0.95344800  0.93082200  1
  C  903  1  0.10488700  0.95876900  0.93565800  1
  C  904  1  0.09522370  0.97889900  0.95013800  1
  C  905  1  0.12272900  0.99357100  0.96023400  1
  C  906  1  0.25793000  0.98930400  0.95158400  1
  C  907  1  0.27987500  0.97351300  0.93771200  1
  C  908  1  0.26351400  0.95472000  0.92421000  1
  C  909  1  0.22613300  0.95126000  0.92469500  1
  C  922  1  0.19206900  0.00099653  0.96371100  1
  C  931  1  0.19353700  0.99186800  0.30279900  1
  C  932  1  0.19832200  0.01217550  0.28796800  1
  C  933  1  0.19973600  0.03267650  0.30252800  1
  C  934  1  0.19581300  0.02570650  0.32680900  1
  C  935  1  0.19632600  0.04351250  0.34522500  1
  C  936  1  0.20149900  0.06819050  0.33897600  1
  C  937  1  0.20606200  0.07469450  0.31440900  1
  C  938  1  0.20493700  0.05706050  0.29603800  1
  C  939  1  0.20194800  0.00983953  0.26270100  1
  C  940  1  0.20095100  0.98655800  0.25231700  1
  C  941  1  0.19592000  0.96570800  0.26684900  1
  C  942  1  0.19227800  0.96856000  0.29231000  1
  C  943  1  0.22028600  0.98713200  0.34374300  1
  C  944  1  0.20489000  0.97382300  0.36268100  1
  C  945  1  0.16783600  0.97614900  0.36146800  1
  C  946  1  0.15909400  0.99076800  0.34158800  1
  C  947  1  0.14106900  0.96608900  0.37634800  1
  C  948  1  0.10485800  0.97090200  0.37100700  1
  C  949  1  0.09519770  0.98536400  0.35086200  1
  C  950  1  0.12270500  0.99545300  0.33618900  1
  C  951  1  0.25790800  0.98683500  0.34049200  1
  C  952  1  0.27984600  0.97296400  0.35628600  1
  C  953  1  0.26348500  0.95947800  0.37508800  1
  C  954  1  0.22610400  0.95996900  0.37855000  1
  C  967  1  0.19205000  0.99895000  0.32878200  1
  C  976  1  0.19362700  0.37315800  0.99174200  1
  C  977  1  0.19845300  0.35286000  0.00657789  1
  C  978  1  0.19986400  0.33235100  0.99202800  1
  C  979  1  0.19589900  0.33930700  0.96774600  1
  C  980  1  0.19637800  0.32149200  0.94933900  1
  C  981  1  0.20152600  0.29681500  0.95560000  1
  C  982  1  0.20611700  0.29032300  0.98016700  1
  C  983  1  0.20501700  0.30796500  0.99852900  1
  C  984  1  0.20203200  0.35520100  0.03184690  1
  C  985  1  0.20102100  0.37848700  0.04222290  1
  C  986  1  0.19597700  0.39932900  0.02768290  1
  C  987  1  0.19233500  0.39647000  0.00222289  1
  C  988  1  0.22034900  0.37786900  0.95077800  1
  C  989  1  0.20492800  0.39121800  0.93187900  1
  C  990  1  0.16787600  0.38885300  0.93308100  1
  C  991  1  0.15915800  0.37422900  0.95296100  1
  C  992  1  0.14109600  0.39892700  0.91822300  1
  C  993  1  0.10489000  0.39410400  0.92357600  1
  C  994  1  0.09525070  0.37963300  0.94371900  1
  C  995  1  0.12277400  0.36954400  0.95837700  1
  C  996  1  0.25796800  0.37821500  0.95404000  1
  C  997  1  0.27989200  0.39207300  0.93822500  1
  C  998  1  0.26350600  0.40555200  0.91942700  1
  C  999  1  0.22612500  0.40503900  0.91596700  1
  C  1012  1  0.19212600  0.36606300  0.96576200  1
  C  1021  1  0.69767200  0.83772200  0.83829300  1
  C  1022  1  0.70133000  0.82310600  0.81772400  1
  C  1023  1  0.70077400  0.83783200  0.79732900  1
  C  1024  1  0.69626100  0.86198300  0.80459400  1
  C  1025  1  0.69550400  0.88055100  0.78694300  1
  C  1026  1  0.69994500  0.87458700  0.76212400  1
  C  1027  1  0.70485800  0.85013400  0.75531500  1
  C  1028  1  0.70495700  0.83160300  0.77278900  1
  C  1029  1  0.70547300  0.79784200  0.81970000  1
  C  1030  1  0.70587500  0.78720900  0.84287800  1
  C  1031  1  0.70183900  0.80151100  0.86397600  1
  C  1032  1  0.69790000  0.82698900  0.86150800  1
  C  1033  1  0.72282100  0.87934300  0.84227800  1
  C  1034  1  0.70751500  0.89777700  0.85634100  1
  C  1035  1  0.67045500  0.89526600  0.85590900  1
  C  1036  1  0.66157300  0.87556500  0.84109300  1
  C  1037  1  0.64389500  0.90857300  0.86817100  1
  C  1038  1  0.60773700  0.90183000  0.86536600  1
  C  1039  1  0.59782700  0.88233700  0.85009300  1
  C  1040  1  0.62519500  0.86906500  0.83805000  1
  C  1041  1  0.76056200  0.87779900  0.84018400  1
  C  1042  1  0.78253300  0.89517200  0.85194800  1
  C  1043  1  0.76640600  0.91381300  0.86571700  1
  C  1044  1  0.72889600  0.91511500  0.86819100  1
  C  1057  1  0.69447600  0.86370900  0.83147700  1
  C  1066  1  0.69775000  0.52725000  0.45625900  1
  C  1067  1  0.70145000  0.54184900  0.47683700  1
  C  1068  1  0.70081200  0.52711600  0.49722600  1
  C  1069  1  0.69629800  0.50296900  0.48994300  1
  C  1070  1  0.69540700  0.48439700  0.50758900  1
  C  1071  1  0.69991500  0.49033900  0.53240600  1
  C  1072  1  0.70490400  0.51478000  0.53922900  1
  C  1073  1  0.70504600  0.53332300  0.52176800  1
  C  1074  1  0.70559300  0.56711400  0.47487600  1
  C  1075  1  0.70600900  0.57776100  0.45170600  1
  C  1076  1  0.70194100  0.56347600  0.43059900  1
  C  1077  1  0.69795900  0.53799900  0.43305300  1
  C  1078  1  0.72273200  0.48558400  0.45223500  1
  C  1079  1  0.70733500  0.46718000  0.43818000  1
  C  1080  1  0.67028600  0.46975500  0.43863900  1
  C  1081  1  0.66150300  0.48947700  0.45345200  1
  C  1082  1  0.64365400  0.45648400  0.42641000  1
  C  1083  1  0.60752500  0.46327600  0.42925700  1
  C  1084  1  0.59770900  0.48277500  0.44455200  1
  C  1085  1  0.62514900  0.49601200  0.45656000  1
  C  1086  1  0.76048400  0.48705800  0.45430100  1
  C  1087  1  0.78236400  0.46963000  0.44254600  1
  C  1088  1  0.76614300  0.45101400  0.42879200  1
  C  1089  1  0.72862700  0.44979300  0.42632700  1
  C  1102  1  0.69446300  0.50126400  0.46306100  1
  C  1111  1  0.69773400  0.49149400  0.80248900  1
  C  1112  1  0.70136700  0.51206200  0.78787200  1
  C  1113  1  0.70082000  0.53245900  0.80260000  1
  C  1114  1  0.69635700  0.52519000  0.82675400  1
  C  1115  1  0.69553600  0.54284500  0.84531900  1
  C  1116  1  0.69993700  0.56766600  0.83935100  1
  C  1117  1  0.70483900  0.57447600  0.81489800  1
  C  1118  1  0.70496600  0.55700000  0.79636900  1
  C  1119  1  0.70546700  0.51008900  0.76260500  1
  C  1120  1  0.70585100  0.48691200  0.75197100  1
  C  1121  1  0.70183100  0.46581200  0.76627400  1
  C  1122  1  0.69791900  0.46828000  0.79175500  1
  C  1123  1  0.72288000  0.48749900  0.84411000  1
  C  1124  1  0.70756800  0.47343800  0.86254300  1
  C  1125  1  0.67050900  0.47388200  0.86003400  1
  C  1126  1  0.66163500  0.48870300  0.84033500  1
  C  1127  1  0.64393800  0.46163100  0.87334600  1
  C  1128  1  0.60778500  0.46443900  0.86659800  1
  C  1129  1  0.59788600  0.47971200  0.84710000  1
  C  1130  1  0.62525900  0.49175300  0.83383200  1
  C  1131  1  0.76062400  0.48957900  0.84256500  1
  C  1132  1  0.78258700  0.47781900  0.85994500  1
  C  1133  1  0.76645200  0.46405500  0.87858600  1
  C  1134  1  0.72894100  0.46158000  0.87988000  1
  C  1147  1  0.69454100  0.49830700  0.82847700  1
  C  1156  1  0.69770700  0.87352000  0.49205000  1
  C  1157  1  0.70129200  0.85294900  0.50667100  1
  C  1158  1  0.70066900  0.83254900  0.49195000  1
  C  1159  1  0.69621800  0.83981800  0.46779500  1
  C  1160  1  0.69545300  0.82216400  0.44922800  1
  C  1161  1  0.69988600  0.79734500  0.45519400  1
  C  1162  1  0.70477500  0.79053700  0.47964900  1
  C  1163  1  0.70486600  0.80801100  0.49817900  1
  C  1164  1  0.70541100  0.85492200  0.53193500  1
  C  1165  1  0.70587200  0.87810200  0.54256500  1
  C  1166  1  0.70188800  0.89920300  0.52825900  1
  C  1167  1  0.69796500  0.89673500  0.50278100  1
  C  1168  1  0.72286600  0.87747100  0.45042800  1
  C  1169  1  0.70759500  0.89153200  0.43198200  1
  C  1170  1  0.67053300  0.89113200  0.43448600  1
  C  1171  1  0.66161900  0.87635500  0.45420900  1
  C  1172  1  0.64399700  0.90338800  0.42115300  1
  C  1173  1  0.60783100  0.90061100  0.42788600  1
  C  1174  1  0.59788600  0.88536100  0.44739100  1
  C  1175  1  0.62522700  0.87331500  0.46068300  1
  C  1176  1  0.76060200  0.87535100  0.45198200  1
  C  1177  1  0.78260300  0.88708800  0.43460700  1
  C  1178  1  0.76651100  0.90085500  0.41595200  1
  C  1179  1  0.72900300  0.90335200  0.41463700  1
  C  1192  1  0.69449500  0.86670200  0.46606400  1
  C  1201  1  0.16756800  0.25068800  0.38804000  1
  C  1202  1  0.19554800  0.23637400  0.39767200  1
  C  1203  1  0.19668900  0.21123600  0.39358700  1
  C  1204  1  0.16974900  0.19956500  0.37983100  1
  C  1205  1  0.14170500  0.21376000  0.36968500  1
  C  1206  1  0.14106100  0.23911400  0.37385100  1
  C  1208  1  0.17062400  0.17382600  0.37725400  1
  C  1209  1  0.16585800  0.15808000  0.39737900  1
  C  1210  1  0.16564400  0.13264500  0.39367100  1
  C  1211  1  0.16997700  0.12248500  0.37036000  1
  C  1212  1  0.17482100  0.13839400  0.35058000  1
  C  1213  1  0.17521800  0.16363800  0.35396100  1
  C  1225  1  0.16823800  0.09585150  0.36615400  1
  C  1228  1  0.16485700  0.27683700  0.39452100  1
  C  1231  1  0.16757800  0.11433600  0.90649900  1
  C  1232  1  0.19557000  0.12865700  0.89689100  1
  C  1233  1  0.19670900  0.15379200  0.90099800  1
  C  1234  1  0.16973000  0.16545600  0.91472400  1
  C  1235  1  0.14167100  0.15125500  0.92484300  1
  C  1236  1  0.14104800  0.12590000  0.92067500  1
  C  1238  1  0.17059700  0.19119200  0.91731100  1
  C  1239  1  0.16585600  0.20694400  0.89718800  1
  C  1240  1  0.16564600  0.23237800  0.90090400  1
  C  1241  1  0.16995300  0.24253000  0.92422100  1
  C  1242  1  0.17477500  0.22661600  0.94399800  1
  C  1243  1  0.17516400  0.20137200  0.94061000  1
  C  1255  1  0.16823300  0.26916200  0.92843200  1
  C  1258  1  0.16489000  0.08818850  0.90000600  1
  C  1261  1  0.16743600  0.94176600  0.21543600  1
  C  1262  1  0.19542500  0.93213300  0.20112600  1
  C  1263  1  0.19658200  0.93622400  0.17598900  1
  C  1264  1  0.16963600  0.94996800  0.16431200  1
  C  1265  1  0.14157900  0.96010600  0.17849900  1
  C  1266  1  0.14093300  0.95595000  0.20385600  1
  C  1268  1  0.17051900  0.95253900  0.13857300  1
  C  1269  1  0.16577500  0.93240800  0.12283100  1
  C  1270  1  0.16558500  0.93611200  0.09739390  1
  C  1271  1  0.16990200  0.95942300  0.08723190  1
  C  1272  1  0.17473500  0.97920600  0.10313700  1
  C  1273  1  0.17510800  0.97583000  0.12838200  1
  C  1285  1  0.16819000  0.96362300  0.06059790  1
  C  1288  1  0.16471800  0.93527600  0.24158100  1
  C  1291  1  0.16746800  0.42324400  0.07910290  1
  C  1292  1  0.19545600  0.43288900  0.09340190  1
  C  1293  1  0.19663700  0.42879100  0.11853800  1
  C  1294  1  0.16970900  0.41503500  0.13022300  1
  C  1295  1  0.14165700  0.40488000  0.11604100  1
  C  1296  1  0.14100000  0.40903100  0.09068390  1
  C  1298  1  0.17060800  0.41246400  0.15596000  1
  C  1299  1  0.16584200  0.43259000  0.17170400  1
  C  1300  1  0.16566200  0.42888700  0.19714100  1
  C  1301  1  0.17000400  0.40557700  0.20730300  1
  C  1302  1  0.17485600  0.38579700  0.19139400  1
  C  1303  1  0.17522100  0.38917400  0.16614900  1
  C  1315  1  0.16828100  0.40137200  0.23393600  1
  C  1318  1  0.16472600  0.42973500  0.05295790  1
  C  1321  1  0.67236000  0.75040100  0.88821200  1
  C  1322  1  0.69977100  0.73546000  0.89764000  1
  C  1323  1  0.69960700  0.71031100  0.89354300  1
  C  1324  1  0.67193900  0.69927100  0.87992900  1
  C  1325  1  0.64449100  0.71409200  0.86994900  1
  C  1326  1  0.64511900  0.73944000  0.87417000  1
  C  1328  1  0.67154700  0.67353300  0.87731600  1
  C  1329  1  0.66591200  0.65788000  0.89740900  1
  C  1330  1  0.66465300  0.63246100  0.89368400  1
  C  1331  1  0.66883400  0.62222500  0.87039200  1
  C  1332  1  0.67450400  0.63804800  0.85064200  1
  C  1333  1  0.67588300  0.66327900  0.85403200  1
  C  1345  1  0.66635500  0.59561200  0.86619600  1
  C  1348  1  0.67101300  0.77657900  0.89478100  1
  C  1351  1  0.67241400  0.61459000  0.40638100  1
  C  1352  1  0.69980500  0.62953300  0.39693000  1
  C  1353  1  0.69965500  0.65468000  0.40102800  1
  C  1354  1  0.67198200  0.66572600  0.41463500  1
  C  1355  1  0.64454200  0.65090600  0.42462900  1
  C  1356  1  0.64518000  0.62555500  0.42043200  1
  C  1358  1  0.67158700  0.69146600  0.41723900  1
  C  1359  1  0.66597400  0.70711000  0.39713800  1
  C  1360  1  0.66471300  0.73253200  0.40085000  1
  C  1361  1  0.66886600  0.74277800  0.42414000  1
  C  1362  1  0.67452600  0.72696100  0.44389800  1
  C  1363  1  0.67590700  0.70173100  0.44051900  1
  C  1375  1  0.66637100  0.76939200  0.42832700  1
  C  1378  1  0.67106400  0.58841100  0.39982200  1
  C  1381  1  0.67228800  0.44161300  0.71516000  1
  C  1382  1  0.69967100  0.43214300  0.70022000  1
  C  1383  1  0.69952100  0.43623200  0.67507200  1
  C  1384  1  0.67188000  0.44986200  0.66402200  1
  C  1385  1  0.64445100  0.45987500  0.67884100  1
  C  1386  1  0.64507800  0.45567700  0.70419300  1
  C  1388  1  0.67148500  0.45245600  0.63828300  1
  C  1389  1  0.66581000  0.43235700  0.62264600  1
  C  1390  1  0.66455700  0.43606300  0.59722400  1
  C  1391  1  0.66876700  0.45934600  0.58697100  1
  C  1392  1  0.67449100  0.47910100  0.60277800  1
  C  1393  1  0.67586500  0.47572800  0.62801000  1
  C  1405  1  0.66628500  0.46352400  0.56035500  1
  C  1408  1  0.67092200  0.43504700  0.74133800  1
  C  1411  1  0.67243500  0.92342400  0.57937800  1
  C  1412  1  0.69985600  0.93284900  0.59431300  1
  C  1413  1  0.69971200  0.92874100  0.61945900  1
  C  1414  1  0.67203000  0.91514400  0.63050700  1
  C  1415  1  0.64456900  0.90517100  0.61569100  1
  C  1416  1  0.64520200  0.90937600  0.59034000  1
  C  1418  1  0.67163800  0.91254100  0.65624500  1
  C  1419  1  0.66601400  0.93263900  0.67189100  1
  C  1420  1  0.66475500  0.92892400  0.69731300  1
  C  1421  1  0.66891200  0.90563300  0.70755500  1
  C  1422  1  0.67458500  0.88587800  0.69173800  1
  C  1423  1  0.67596100  0.88925800  0.66650800  1
  C  1435  1  0.66641100  0.90144200  0.73416900  1
  C  1438  1  0.67107500  0.93000600  0.55320400  1
  C  1441  1  0.00858175  0.38974600  0.37024000  1
  C  1442  1  0.00254875  0.41302500  0.36035500  1
  C  1443  1  0.97529200  0.42812400  0.36947700  1
  C  1444  1  0.95300100  0.42046100  0.38874200  1
  C  1445  1  0.95866600  0.39716000  0.39894600  1
  C  1446  1  0.98635800  0.38223000  0.38960800  1
  C  1448  1  0.92502500  0.43604200  0.39709300  1
  C  1449  1  0.89539000  0.44225100  0.38214700  1
  C  1450  1  0.86813000  0.45759200  0.39141100  1
  C  1451  1  0.86951400  0.46685200  0.41527700  1
  C  1452  1  0.89906600  0.46040600  0.42993000  1
  C  1453  1  0.92641500  0.44528700  0.42097600  1
  C  1465  1  0.84054500  0.48274500  0.42496000  1
  C  1468  1  0.03661170  0.37270000  0.36107900  1
  C  1471  1  0.00843375  0.97522300  0.92439500  1
  C  1472  1  0.00242875  0.95193500  0.93426800  1
  C  1473  1  0.97520300  0.93682000  0.92513000  1
  C  1474  1  0.95291300  0.94448000  0.90586400  1
  C  1475  1  0.95854800  0.96779000  0.89567500  1
  C  1476  1  0.98621000  0.98273700  0.90502700  1
  C  1478  1  0.92497400  0.92888100  0.89749300  1
  C  1479  1  0.89532800  0.92264700  0.91242100  1
  C  1480  1  0.86812100  0.90727200  0.90314200  1
  C  1481  1  0.86956800  0.89800500  0.87927700  1
  C  1482  1  0.89913000  0.90447900  0.86464700  1
  C  1483  1  0.92642800  0.91962800  0.87361400  1
  C  1495  1  0.84067600  0.88205500  0.86958700  1
  C  1498  1  0.03642670  0.99228600  0.93357500  1
  C  1501  1  0.00844175  0.95957500  0.35452700  1
  C  1502  1  0.00242075  0.96945100  0.37781100  1
  C  1503  1  0.97520300  0.96030400  0.39292500  1
  C  1504  1  0.95293700  0.94102100  0.38527300  1
  C  1505  1  0.95859100  0.93082900  0.36196600  1
  C  1506  1  0.98624500  0.94018800  0.34702000  1
  C  1508  1  0.92500300  0.93264200  0.40087300  1
  C  1509  1  0.89534400  0.94756000  0.40710600  1
  C  1510  1  0.86815400  0.93827700  0.42249000  1
  C  1511  1  0.86961900  0.91441600  0.43176000  1
  C  1512  1  0.89918900  0.89979200  0.42528500  1
  C  1513  1  0.92647900  0.90876700  0.41013100  1
  C  1525  1  0.84074600  0.90472100  0.44772600  1
  C  1528  1  0.03642870  0.96876500  0.33746300  1
  C  1531  1  0.00848975  0.40540500  0.94005800  1
  C  1532  1  0.00246875  0.39551300  0.91678100  1
  C  1533  1  0.97524400  0.40464800  0.90166400  1
  C  1534  1  0.95297400  0.42393200  0.90930900  1
  C  1535  1  0.95863400  0.43414500  0.93260600  1
  C  1536  1  0.98629600  0.42479800  0.94755200  1
  C  1538  1  0.92503000  0.43229300  0.89370800  1
  C  1539  1  0.89537100  0.41736800  0.88750000  1
  C  1540  1  0.86816700  0.42663300  0.87211600  1
  C  1541  1  0.86962100  0.45048700  0.86282300  1
  C  1542  1  0.89918900  0.46512000  0.86927800  1
  C  1543  1  0.92649000  0.45616100  0.88443200  1
  C  1555  1  0.84073200  0.46016300  0.84685900  1
  C  1558  1  0.03647970  0.39622900  0.95712600  1
  C  1561  1  0.37264700  0.96621900  0.37885700  1
  C  1562  1  0.37745100  0.94202300  0.37108400  1
  C  1563  1  0.40609100  0.92791200  0.37980700  1
  C  1564  1  0.43098800  0.93746700  0.39661000  1
  C  1565  1  0.42675200  0.96176800  0.40454400  1
  C  1566  1  0.39773900  0.97574900  0.39555700  1
  C  1568  1  0.45871100  0.92213600  0.40576300  1
  C  1569  1  0.48588000  0.91242100  0.39054500  1
  C  1570  1  0.51161100  0.89626800  0.40042800  1
  C  1571  1  0.51104500  0.88960400  0.42515800  1
  C  1572  1  0.48421100  0.89973400  0.44010500  1
  C  1573  1  0.45839200  0.91566800  0.43055600  1
  C  1585  1  0.53695500  0.87173700  0.43531600  1
  C  1588  1  0.34162400  0.98159300  0.37127600  1
  C  1591  1  0.37271100  0.39887800  0.91568500  1
  C  1592  1  0.37748200  0.42308400  0.92343600  1
  C  1593  1  0.40612700  0.43719800  0.91471900  1
  C  1594  1  0.43103200  0.42764300  0.89791800  1
  C  1595  1  0.42682500  0.40333300  0.89000200  1
  C  1596  1  0.39782400  0.38934600  0.89900000  1
  C  1598  1  0.45874400  0.44297900  0.88875700  1
  C  1599  1  0.48590700  0.45271000  0.90396600  1
  C  1600  1  0.51163300  0.46886000  0.89407100  1
  C  1601  1  0.51106400  0.47550500  0.86933800  1
  C  1602  1  0.48423800  0.46535900  0.85439700  1
  C  1603  1  0.45841600  0.44943400  0.86396000  1
  C  1615  1  0.53696600  0.49337200  0.85916400  1
  C  1618  1  0.34169400  0.38349800  0.92326600  1
  C  1621  1  0.37282300  0.41404500  0.36366000  1
  C  1622  1  0.37755500  0.40631800  0.38787700  1
  C  1623  1  0.40616500  0.41506000  0.40200800  1
  C  1624  1  0.43109100  0.43184600  0.39245300  1
  C  1625  1  0.42693100  0.43972900  0.36812900  1
  C  1626  1  0.39796000  0.43071300  0.35412700  1
  C  1628  1  0.45875200  0.44104400  0.40781000  1
  C  1629  1  0.48589100  0.42586000  0.41761100  1
  C  1630  1  0.51155700  0.43579200  0.43377800  1
  C  1631  1  0.51095900  0.46054000  0.44037300  1
  C  1632  1  0.48416600  0.47545400  0.43015200  1
  C  1633  1  0.45839500  0.46585400  0.41421400  1
  C  1645  1  0.53679200  0.47075300  0.45826000  1
  C  1648  1  0.34184200  0.40644000  0.34826200  1
  C  1651  1  0.37268700  0.95096800  0.93095400  1
  C  1652  1  0.37748400  0.95872400  0.90675100  1
  C  1653  1  0.40613600  0.95000000  0.89264600  1
  C  1654  1  0.43102900  0.93320000  0.90221000  1
  C  1655  1  0.42680800  0.92529200  0.92652200  1
  C  1656  1  0.39780300  0.93429600  0.94050200  1
  C  1658  1  0.45873800  0.92402200  0.88688000  1
  C  1659  1  0.48590200  0.93922200  0.87713000  1
  C  1660  1  0.51160800  0.92931400  0.86097600  1
  C  1661  1  0.51102300  0.90457500  0.85434400  1
  C  1662  1  0.48421400  0.88964200  0.86452100  1
  C  1663  1  0.45840300  0.89921900  0.88044500  1
  C  1675  1  0.53689400  0.89439300  0.83646100  1
  C  1678  1  0.34166900  0.95856300  0.94632600  1
  N  38  1  0.87048000  0.20055900  0.14084900  1
  N  40  1  0.00944400  0.10975800  0.18802700  1
  N  42  1  0.01514600  0.21023900  0.04336000  1
  N  44  1  0.12975300  0.20697100  0.16030800  1
  N  83  1  0.87033000  0.80207400  0.75520300  1
  N  85  1  0.00945700  0.89292300  0.70795700  1
  N  87  1  0.01505600  0.79241300  0.85259700  1
  N  89  1  0.12961000  0.79569300  0.73568700  1
  N  128  1  0.87030500  0.80852500  0.14720500  1
  N  130  1  0.00929800  0.76130800  0.05639100  1
  N  132  1  0.01509400  0.90595300  0.15689500  1
  N  134  1  0.12959100  0.78908700  0.15365500  1
  N  173  1  0.87036200  0.19411700  0.74881200  1
  N  175  1  0.00930900  0.24138700  0.83955300  1
  N  177  1  0.01509700  0.09669700  0.73910600  1
  N  179  1  0.12962500  0.21366200  0.74228000  1
  N  218  1  0.37298600  0.69499600  0.64897300  1
  N  220  1  0.51592600  0.60884800  0.68772100  1
  N  222  1  0.51330700  0.71084200  0.54408800  1
  N  224  1  0.63259300  0.71390400  0.65106100  1
  N  263  1  0.37288700  0.30780300  0.24716800  1
  N  265  1  0.51599500  0.39380400  0.20828100  1
  N  267  1  0.51321300  0.29172400  0.35185100  1
  N  269  1  0.63242300  0.28846600  0.24482900  1
  N  308  1  0.37304500  0.30038600  0.64164800  1
  N  310  1  0.51585600  0.26160200  0.55549000  1
  N  312  1  0.51326600  0.40524000  0.65748700  1
  N  314  1  0.63264900  0.29823900  0.66056600  1
  N  353  1  0.37303700  0.70237400  0.25424700  1
  N  355  1  0.51597900  0.74106500  0.34045500  1
  N  357  1  0.51326100  0.59742700  0.23847400  1
  N  359  1  0.63266200  0.70430100  0.23543100  1
  N  379  1  0.92613300  0.02105500  0.15717100  1
  N  380  1  0.97241000  0.98686500  0.22143500  1
  N  409  1  0.92606600  0.98160600  0.73875100  1
  N  410  1  0.97242600  0.01581800  0.67454800  1
  N  439  1  0.92599800  0.79214300  0.96767200  1
  N  440  1  0.97232100  0.72789200  0.93350100  1
  N  469  1  0.92609200  0.21048900  0.92829700  1
  N  470  1  0.97236700  0.27475700  0.96245400  1
  N  499  1  0.42826300  0.52201900  0.65753600  1
  N  500  1  0.47273200  0.48677200  0.72144600  1
  N  529  1  0.42831200  0.48063500  0.23845600  1
  N  530  1  0.47280700  0.51586300  0.17452200  1
  N  559  1  0.42824700  0.29184200  0.46864200  1
  N  560  1  0.47258100  0.22786900  0.43343800  1
  N  589  1  0.42832800  0.71089600  0.42731000  1
  N  590  1  0.47284200  0.77478900  0.46252900  1
  N  619  1  0.74807300  0.20774100  0.21848100  1
  N  620  1  0.70520900  0.25133300  0.15916600  1
  N  649  1  0.74795300  0.79485400  0.67755500  1
  N  650  1  0.70508900  0.75122200  0.73681500  1
  N  679  1  0.74802200  0.73080700  0.15444200  1
  N  680  1  0.70508300  0.79006700  0.19805900  1
  N  709  1  0.74805700  0.27181700  0.74153900  1
  N  710  1  0.70512400  0.21252000  0.69798400  1
  N  739  1  0.26396700  0.79054700  0.22178300  1
  N  740  1  0.29928000  0.73814100  0.16655200  1
  N  769  1  0.26405400  0.21220700  0.67419100  1
  N  770  1  0.29931200  0.26465500  0.72938100  1
  N  799  1  0.26417900  0.27506300  0.15888500  1
  N  800  1  0.29932500  0.21996500  0.21149300  1
  N  829  1  0.26402900  0.72760000  0.73719500  1
  N  830  1  0.29931200  0.78276000  0.68469700  1
  N  878  1  0.05831470  0.38173300  0.34014000  1
  N  880  1  0.19727900  0.29093200  0.38731800  1
  N  882  1  0.20298100  0.39141300  0.24265100  1
  N  884  1  0.31758800  0.38814500  0.35959900  1
  N  923  1  0.05816470  0.98324800  0.95449400  1
  N  925  1  0.19729200  0.07409650  0.90724800  1
  N  927  1  0.20289100  0.97358700  0.05188790  1
  N  929  1  0.31744500  0.97686700  0.93497800  1
  N  968  1  0.05813970  0.98969900  0.34649600  1
  N  970  1  0.19713300  0.94248200  0.25568200  1
  N  972  1  0.20292900  0.08712650  0.35618600  1
  N  974  1  0.31742600  0.97026100  0.35294600  1
  N  1013  1  0.05819670  0.37529100  0.94810300  1
  N  1015  1  0.19714400  0.42256100  0.03884390  1
  N  1017  1  0.20293200  0.27787100  0.93839700  1
  N  1019  1  0.31746000  0.39483600  0.94157100  1
  N  1058  1  0.56082100  0.87617000  0.84826400  1
  N  1060  1  0.70376100  0.79002200  0.88701200  1
  N  1062  1  0.70114200  0.89201600  0.74337900  1
  N  1064  1  0.82042800  0.89507800  0.85035200  1
  N  1103  1  0.56072200  0.48897700  0.44645900  1
  N  1105  1  0.70383000  0.57497800  0.40757200  1
  N  1107  1  0.70104800  0.47289800  0.55114200  1
  N  1109  1  0.82025800  0.46964000  0.44412000  1
  N  1148  1  0.56088000  0.48156000  0.84093900  1
  N  1150  1  0.70369100  0.44277600  0.75478100  1
  N  1152  1  0.70110100  0.58641400  0.85677800  1
  N  1154  1  0.82048400  0.47941300  0.85985700  1
  N  1193  1  0.56087200  0.88354800  0.45353800  1
  N  1195  1  0.70381400  0.92223900  0.53974600  1
  N  1197  1  0.70109600  0.77860100  0.43776500  1
  N  1199  1  0.82049700  0.88547500  0.43472200  1
  N  1219  1  0.11396800  0.20222900  0.35646200  1
  N  1220  1  0.16024500  0.16803900  0.42072600  1
  N  1249  1  0.11390100  0.16278000  0.93804200  1
  N  1250  1  0.16026100  0.19699200  0.87383900  1
  N  1279  1  0.11383300  0.97331700  0.16696300  1
  N  1280  1  0.16015600  0.90906600  0.13279200  1
  N  1309  1  0.11392700  0.39166300  0.12758800  1
  N  1310  1  0.16020200  0.45593100  0.16174500  1
  N  1339  1  0.61609800  0.70319300  0.85682700  1
  N  1340  1  0.66056700  0.66794600  0.92073700  1
  N  1369  1  0.61614700  0.66180900  0.43774700  1
  N  1370  1  0.66064200  0.69703700  0.37381300  1
  N  1399  1  0.61608200  0.47301600  0.66793300  1
  N  1400  1  0.66041600  0.40904300  0.63272900  1
  N  1429  1  0.61616300  0.89207000  0.62660100  1
  N  1430  1  0.66067700  0.95596300  0.66182000  1
  N  1459  1  0.93590800  0.38891500  0.41777200  1
  N  1460  1  0.89304400  0.43250700  0.35845700  1
  N  1489  1  0.93578800  0.97602800  0.87684600  1
  N  1490  1  0.89292400  0.93239600  0.93610600  1
  N  1519  1  0.93585700  0.91198100  0.35373300  1
  N  1520  1  0.89291800  0.97124100  0.39735000  1
  N  1549  1  0.93589200  0.45299100  0.94083000  1
  N  1550  1  0.89295900  0.39369400  0.89727500  1
  N  1579  1  0.45180200  0.97172100  0.42107400  1
  N  1580  1  0.48711500  0.91931500  0.36584300  1
  N  1609  1  0.45188900  0.39338100  0.87348200  1
  N  1610  1  0.48714700  0.44582900  0.92867200  1
  N  1639  1  0.45201400  0.45623700  0.35817600  1
  N  1640  1  0.48716000  0.40113900  0.41078400  1
  N  1669  1  0.45186400  0.90877400  0.93648600  1
  N  1670  1  0.48714700  0.96393400  0.88398800  1
  O  381  1  0.99627800  0.98015600  0.23604800  1
  O  382  1  0.92432100  0.02897700  0.13586400  1
  O  383  1  0.89614300  0.02383200  0.16720300  1
  O  384  1  0.94226200  0.98103500  0.22979600  1
  O  411  1  0.99631000  0.02252600  0.65994500  1
  O  412  1  0.92421400  0.97368100  0.76005400  1
  O  413  1  0.89609800  0.97882300  0.72869200  1
  O  414  1  0.94228600  0.02165400  0.66617500  1
  O  441  1  0.99619800  0.71327900  0.92680600  1
  O  442  1  0.92417100  0.81345100  0.97558500  1
  O  443  1  0.89601700  0.78210300  0.97044800  1
  O  444  1  0.94217900  0.71952500  0.92766100  1
  O  471  1  0.99623000  0.28938100  0.96914800  1
  O  472  1  0.92427600  0.18917800  0.92038700  1
  O  473  1  0.89610300  0.22051900  0.92552600  1
  O  474  1  0.94221700  0.28310900  0.96829800  1
  O  501  1  0.49619800  0.47959500  0.73613500  1
  O  502  1  0.42664000  0.53001600  0.63625000  1
  O  503  1  0.39851600  0.52543400  0.66769500  1
  O  504  1  0.44228900  0.48153000  0.72970800  1
  O  531  1  0.49628100  0.52303000  0.15983400  1
  O  532  1  0.42669600  0.47265600  0.25974900  1
  O  533  1  0.39856400  0.47720800  0.22830200  1
  O  534  1  0.44236700  0.52110200  0.16625100  1
  O  561  1  0.49601500  0.21315100  0.42627200  1
  O  562  1  0.42666700  0.31313500  0.47662100  1
  O  563  1  0.39847800  0.28171000  0.47206900  1
  O  564  1  0.44211700  0.21963300  0.42820600  1
  O  591  1  0.49631300  0.78947800  0.46969900  1
  O  592  1  0.42667700  0.68960600  0.41932500  1
  O  593  1  0.39859100  0.72107100  0.42389300  1
  O  594  1  0.44240200  0.78305800  0.46776700  1
  O  621  1  0.70446900  0.26776500  0.14341800  1
  O  622  1  0.76553400  0.20302500  0.23737700  1
  O  623  1  0.73092400  0.18915600  0.21224900  1
  O  624  1  0.67780700  0.23829200  0.15673300  1
  O  651  1  0.70436200  0.73479300  0.75256800  1
  O  652  1  0.76541600  0.79959000  0.65866600  1
  O  653  1  0.73077100  0.81342400  0.68379200  1
  O  654  1  0.67765100  0.76423200  0.73922300  1
  O  681  1  0.70435100  0.80582400  0.21448400  1
  O  682  1  0.76551000  0.71192700  0.14971600  1
  O  683  1  0.73083500  0.73702700  0.13586900  1
  O  684  1  0.67764100  0.79246200  0.18505300  1
  O  711  1  0.70438600  0.19674900  0.68157300  1
  O  712  1  0.76553700  0.29070400  0.74625000  1
  O  713  1  0.73088100  0.26560400  0.76011800  1
  O  714  1  0.67768900  0.21013100  0.71100200  1
  O  741  1  0.29615400  0.72013400  0.15278100  1
  O  742  1  0.24898000  0.79712900  0.24108700  1
  O  743  1  0.28008300  0.80840200  0.21278400  1
  O  744  1  0.32807500  0.74889500  0.16159300  1
  O  771  1  0.29618100  0.28266900  0.74314200  1
  O  772  1  0.24907900  0.20560100  0.65489100  1
  O  773  1  0.28018800  0.19436700  0.68320400  1
  O  774  1  0.32811200  0.25390900  0.73434300  1
  O  801  1  0.29614300  0.20624100  0.22952900  1
  O  802  1  0.24921400  0.29435500  0.15224200  1
  O  803  1  0.28034900  0.26602600  0.14107100  1
  O  804  1  0.32816300  0.21498600  0.20080000  1
  O  831  1  0.29617000  0.79650600  0.66666667  1
  O  832  1  0.24904700  0.70830200  0.74380200  1
  O  833  1  0.28015600  0.73661700  0.75503400  1
  O  834  1  0.32812300  0.78773000  0.69542900  1
  O  1221  1  0.18411300  0.16133000  0.43533900  1
  O  1222  1  0.11215600  0.21015100  0.33515500  1
  O  1223  1  0.08397770  0.20500600  0.36649400  1
  O  1224  1  0.13009700  0.16220900  0.42908700  1
  O  1251  1  0.18414500  0.20370000  0.85923600  1
  O  1252  1  0.11204900  0.15485500  0.95934500  1
  O  1253  1  0.08393270  0.15999700  0.92798300  1
  O  1254  1  0.13012100  0.20282800  0.86546600  1
  O  1281  1  0.18403300  0.89445300  0.12609700  1
  O  1282  1  0.11200600  0.99462500  0.17487600  1
  O  1283  1  0.08385170  0.96327700  0.16973900  1
  O  1284  1  0.13001400  0.90069900  0.12695200  1
  O  1311  1  0.18406500  0.47055500  0.16843900  1
  O  1312  1  0.11211100  0.37035200  0.11967800  1
  O  1313  1  0.08393770  0.40169300  0.12481700  1
  O  1314  1  0.13005200  0.46428300  0.16758900  1
  O  1341  1  0.68403300  0.66076900  0.93542600  1
  O  1342  1  0.61447500  0.71119000  0.83554100  1
  O  1343  1  0.58635100  0.70660800  0.86698600  1
  O  1344  1  0.63012400  0.66270400  0.92899900  1
  O  1371  1  0.68411600  0.70420400  0.35912500  1
  O  1372  1  0.61453100  0.65383000  0.45904000  1
  O  1373  1  0.58639900  0.65838200  0.42759300  1
  O  1374  1  0.63020200  0.70227600  0.36554200  1
  O  1401  1  0.68385000  0.39432500  0.62556300  1
  O  1402  1  0.61450200  0.49430900  0.67591200  1
  O  1403  1  0.58631300  0.46288400  0.67136000  1
  O  1404  1  0.62995200  0.40080700  0.62749700  1
  O  1431  1  0.68414800  0.97065200  0.66899000  1
  O  1432  1  0.61451200  0.87078000  0.61861600  1
  O  1433  1  0.58642600  0.90224500  0.62318400  1
  O  1434  1  0.63023700  0.96423200  0.66705800  1
  O  1461  1  0.89230400  0.44893900  0.34270900  1
  O  1462  1  0.95336900  0.38419900  0.43666800  1
  O  1463  1  0.91875900  0.37033000  0.41154000  1
  O  1464  1  0.86564200  0.41946600  0.35602400  1
  O  1491  1  0.89219700  0.91596700  0.95185900  1
  O  1492  1  0.95325100  0.98076400  0.85795700  1
  O  1493  1  0.91860600  0.99459800  0.88308300  1
  O  1494  1  0.86548600  0.94540600  0.93851400  1
  O  1521  1  0.89218600  0.98699800  0.41377500  1
  O  1522  1  0.95334500  0.89310100  0.34900700  1
  O  1523  1  0.91867000  0.91820100  0.33516000  1
  O  1524  1  0.86547600  0.97363600  0.38434400  1
  O  1551  1  0.89222100  0.37792300  0.88086400  1
  O  1552  1  0.95337200  0.47187800  0.94554100  1
  O  1553  1  0.91871600  0.44677800  0.95940900  1
  O  1554  1  0.86552400  0.39130500  0.91029300  1
  O  1581  1  0.48398900  0.90130800  0.35207200  1
  O  1582  1  0.43681500  0.97830300  0.44037800  1
  O  1583  1  0.46791800  0.98957600  0.41207500  1
  O  1584  1  0.51591000  0.93006900  0.36088400  1
  O  1611  1  0.48401600  0.46384300  0.94243300  1
  O  1612  1  0.43691400  0.38677500  0.85418200  1
  O  1613  1  0.46802300  0.37554100  0.88249500  1
  O  1614  1  0.51594700  0.43508300  0.93363400  1
  O  1641  1  0.48397800  0.38741500  0.42882000  1
  O  1642  1  0.43704900  0.47552900  0.35153300  1
  O  1643  1  0.46818400  0.44720000  0.34036200  1
  O  1644  1  0.51599800  0.39616000  0.40009100  1
  O  1671  1  0.48400500  0.97768000  0.86596500  1
  O  1672  1  0.43688200  0.88947600  0.94309300  1
  O  1673  1  0.46799100  0.91779100  0.95432500  1
  O  1674  1  0.51595800  0.96890400  0.89472000  1
