# generated using pymatgen
data_H2C3N
_symmetry_space_group_name_H-M   'P 1'
_cell_length_a   30.82690000
_cell_length_b   36.40890000
_cell_length_c   36.40890000
_cell_angle_alpha   90.00000000
_cell_angle_beta   90.00000000
_cell_angle_gamma   90.00000000
_symmetry_Int_Tables_number   1
_chemical_formula_structural   H2C3N
_chemical_formula_sum   'H320 C480 N160'
_cell_volume   40864.38523085
_cell_formula_units_Z   160
loop_
 _symmetry_equiv_pos_site_id
 _symmetry_equiv_pos_as_xyz
  1  'x, y, z'
loop_
 _atom_site_type_symbol
 _atom_site_label
 _atom_site_symmetry_multiplicity
 _atom_site_fract_x
 _atom_site_fract_y
 _atom_site_fract_z
 _atom_site_occupancy
  H  3  1  0.99529200  0.13944300  0.47836700  1
  H  7  1  0.02430900  0.04693700  0.56701000  1
  H  9  1  0.01587500  0.13801600  0.54107600  1
  H  17  1  0.08878100  0.08491800  0.53399000  1
  H  18  1  0.08371300  0.12439200  0.50577500  1
  H  23  1  0.02429800  0.98685200  0.56701800  1
  H  25  1  0.01585900  0.89577000  0.54110100  1
  H  33  1  0.08876900  0.94886100  0.53399300  1
  H  34  1  0.08368000  0.90939900  0.50576100  1
  H  35  1  0.21769800  0.17703300  0.69698600  1
  H  38  1  0.21738200  0.17712800  0.76179200  1
  H  44  1  0.22871400  0.20203900  0.60623100  1
  H  45  1  0.08028000  0.19794000  0.62273200  1
  H  47  1  0.15967600  0.23683500  0.61716800  1
  H  48  1  0.15344100  0.20934500  0.65702100  1
  H  50  1  0.24643000  0.26574000  0.60442400  1
  H  54  1  0.15973300  0.79692900  0.61714300  1
  H  61  1  0.21772800  0.85678800  0.69695600  1
  H  63  1  0.22875800  0.83175500  0.60620600  1
  H  66  1  0.08031100  0.83580900  0.62269700  1
  H  68  1  0.15347200  0.82444100  0.65697900  1
  H  70  1  0.21740000  0.85670500  0.76176400  1
  H  74  1  0.99531600  0.13944600  0.98076800  1
  H  76  1  0.02403200  0.04690800  0.89205700  1
  H  78  1  0.01291400  0.13759800  0.91699000  1
  H  85  1  0.16146700  0.12130900  0.91284000  1
  H  87  1  0.08197000  0.12698700  0.95195100  1
  H  88  1  0.08844900  0.08713700  0.92449600  1
  H  93  1  0.22590600  0.20295300  0.85279700  1
  H  97  1  0.15273300  0.21027900  0.80001600  1
  H  98  1  0.15808900  0.23846500  0.83948700  1
  H  100  1  0.24642400  0.26575500  0.85429400  1
  H  101  1  0.15813200  0.79531900  0.83946800  1
  H  103  1  0.24642500  0.76809200  0.85428800  1
  H  107  1  0.02400600  0.98683800  0.89205100  1
  H  109  1  0.01285500  0.89615500  0.91697600  1
  H  112  1  0.22592400  0.83089800  0.85277200  1
  H  119  1  0.16142600  0.91257600  0.91276000  1
  H  124  1  0.08189100  0.90674300  0.95198700  1
  H  125  1  0.08840100  0.94659500  0.92454300  1
  H  126  1  0.15272400  0.82353500  0.80002100  1
  H  127  1  0.47705100  0.39341800  0.54108500  1
  H  135  1  0.46860400  0.48447800  0.56698800  1
  H  140  1  0.40412800  0.44649000  0.53397700  1
  H  141  1  0.40923700  0.40704100  0.50573100  1
  H  146  1  0.46857800  0.54928900  0.56698500  1
  H  147  1  0.40408900  0.58724700  0.53399300  1
  H  149  1  0.49758800  0.64181300  0.47835600  1
  H  151  1  0.47698600  0.64035200  0.54107600  1
  H  159  1  0.40915200  0.62671800  0.50576900  1
  H  164  1  0.27518900  0.35445500  0.69697500  1
  H  166  1  0.26414700  0.32943600  0.60622500  1
  H  169  1  0.41259400  0.33352800  0.62276800  1
  H  171  1  0.33316700  0.29458700  0.61717100  1
  H  172  1  0.33943700  0.32211600  0.65699300  1
  H  174  1  0.27550400  0.35436700  0.76178600  1
  H  179  1  0.27514100  0.67934800  0.69698900  1
  H  181  1  0.26415100  0.70436600  0.60621700  1
  H  184  1  0.41258100  0.70023800  0.62276800  1
  H  186  1  0.33319600  0.73915400  0.61718400  1
  H  187  1  0.33940800  0.71165000  0.65703200  1
  H  189  1  0.24646500  0.76805700  0.60441300  1
  H  191  1  0.27544800  0.67944900  0.76180000  1
  H  192  1  0.48008400  0.39379100  0.91693800  1
  H  195  1  0.26695300  0.32855700  0.85278300  1
  H  205  1  0.34016100  0.32115200  0.80004900  1
  H  206  1  0.33472400  0.29293900  0.83949500  1
  H  209  1  0.46890200  0.48448000  0.89201300  1
  H  211  1  0.33150300  0.41021000  0.91277700  1
  H  213  1  0.41106600  0.40437400  0.95198400  1
  H  214  1  0.40453000  0.44421800  0.92453500  1
  H  219  1  0.46886000  0.54928600  0.89202100  1
  H  220  1  0.40443600  0.58953400  0.92451000  1
  H  222  1  0.47998300  0.63997500  0.91694900  1
  H  225  1  0.26692200  0.70529700  0.85280800  1
  H  232  1  0.33141500  0.62367700  0.91285600  1
  H  237  1  0.41094600  0.62937900  0.95196500  1
  H  238  1  0.34010200  0.71263600  0.80003500  1
  H  239  1  0.33472700  0.74084100  0.83949000  1
  H  241  1  0.49757200  0.64183800  0.98073000  1
  H  242  1  0.51530600  0.39381000  0.03976300  1
  H  246  1  0.74881400  0.26566400  0.10248200  1
  H  247  1  0.71980000  0.35430300  0.19497000  1
  H  249  1  0.72832200  0.32845500  0.10395100  1
  H  259  1  0.65514900  0.32116300  0.15673600  1
  H  260  1  0.66050400  0.29294200  0.11728900  1
  H  263  1  0.52644300  0.48449100  0.06468400  1
  H  265  1  0.66387500  0.41009200  0.04389600  1
  H  267  1  0.58435700  0.40438700  0.00476900  1
  H  268  1  0.59086700  0.44424300  0.03221100  1
  H  273  1  0.52639700  0.54929400  0.06469100  1
  H  274  1  0.59077300  0.58956200  0.03219200  1
  H  276  1  0.51520600  0.63997500  0.03977400  1
  H  279  1  0.71974200  0.67944700  0.19496700  1
  H  281  1  0.72828000  0.70527300  0.10396400  1
  H  288  1  0.66378700  0.62358900  0.04396700  1
  H  293  1  0.58424000  0.62940900  0.00474700  1
  H  294  1  0.65507700  0.71261400  0.15671400  1
  H  295  1  0.66048800  0.74084400  0.11727900  1
  H  296  1  0.74878800  0.76807600  0.10247600  1
  H  302  1  0.72012100  0.35440200  0.25978100  1
  H  304  1  0.73113400  0.32937800  0.35054900  1
  H  311  1  0.58270200  0.33351200  0.33399300  1
  H  313  1  0.66209400  0.29459000  0.33960100  1
  H  314  1  0.65586900  0.32208100  0.29974800  1
  H  315  1  0.52669300  0.48448300  0.38973400  1
  H  316  1  0.52666700  0.54930000  0.38973200  1
  H  322  1  0.72008200  0.67934200  0.25977700  1
  H  324  1  0.73113700  0.70434700  0.35053200  1
  H  331  1  0.58269200  0.70024600  0.33397300  1
  H  333  1  0.66211700  0.73919600  0.33959600  1
  H  334  1  0.65584900  0.71167200  0.29976700  1
  H  335  1  0.49768200  0.39196200  0.47836700  1
  H  336  1  0.51827800  0.39342300  0.41564800  1
  H  345  1  0.59118200  0.44651700  0.42274800  1
  H  346  1  0.58610500  0.40705400  0.45097800  1
  H  351  1  0.59114300  0.58729000  0.42277300  1
  H  353  1  0.51821600  0.64035700  0.41564000  1
  H  357  1  0.58602100  0.62674200  0.45101600  1
  H  358  1  0.49772400  0.39194000  0.98070500  1
  H  365  1  0.97126500  0.04691300  0.06473300  1
  H  367  1  0.98241500  0.13761000  0.03980100  1
  H  368  1  0.77786000  0.17705100  0.19498800  1
  H  375  1  0.83384000  0.12119600  0.04398000  1
  H  377  1  0.91339100  0.12700500  0.00477500  1
  H  378  1  0.90687000  0.08716700  0.03223500  1
  H  383  1  0.76930900  0.20287500  0.10396600  1
  H  387  1  0.84251400  0.21024200  0.15671400  1
  H  388  1  0.83709400  0.23846000  0.11727100  1
  H  389  1  0.83710300  0.79530800  0.11727400  1
  H  392  1  0.97123900  0.98684100  0.06473000  1
  H  394  1  0.98237300  0.89615200  0.03980200  1
  H  397  1  0.77784700  0.85668600  0.19498100  1
  H  399  1  0.76930500  0.83085500  0.10395500  1
  H  406  1  0.83380700  0.91244400  0.04388400  1
  H  411  1  0.91333500  0.90673200  0.00479400  1
  H  412  1  0.90682500  0.94659300  0.03222800  1
  H  413  1  0.84247800  0.82350700  0.15673300  1
  H  414  1  0.77754800  0.17696600  0.25980000  1
  H  415  1  0.97099000  0.04691700  0.38974800  1
  H  422  1  0.74882300  0.26569000  0.35234500  1
  H  430  1  0.76651900  0.20200200  0.35056800  1
  H  431  1  0.91496700  0.19796300  0.33407800  1
  H  433  1  0.83554300  0.23683100  0.33961500  1
  H  434  1  0.84180100  0.20930800  0.29978400  1
  H  438  1  0.74886500  0.76804000  0.35234200  1
  H  439  1  0.83558500  0.79693400  0.33960900  1
  H  444  1  0.77755800  0.85676900  0.25979200  1
  H  446  1  0.76655100  0.83173600  0.35055200  1
  H  447  1  0.97097700  0.98683300  0.38975900  1
  H  454  1  0.91498700  0.83580900  0.33405800  1
  H  456  1  0.84182000  0.82442800  0.29975600  1
  H  461  1  0.97942700  0.13799200  0.41565900  1
  H  465  1  0.90651700  0.08490600  0.42278100  1
  H  466  1  0.91161000  0.12437200  0.45100800  1
  H  471  1  0.99999400  0.89433400  0.47840200  1
  H  473  1  0.97939800  0.89575600  0.41569500  1
  H  477  1  0.90650400  0.94886400  0.42275900  1
  H  478  1  0.91156100  0.90939900  0.45098900  1
  H  480  1  0.99996400  0.89429200  0.98075500  1
  H  483  1  0.35212300  0.13944300  0.47836700  1
  H  487  1  0.38114000  0.04693700  0.56701000  1
  H  489  1  0.37270600  0.13801600  0.54107600  1
  H  497  1  0.44561200  0.08491800  0.53399000  1
  H  498  1  0.44054400  0.12439200  0.50577500  1
  H  503  1  0.38112900  0.98685200  0.56701800  1
  H  505  1  0.37269000  0.89577000  0.54110100  1
  H  513  1  0.44560000  0.94886100  0.53399300  1
  H  514  1  0.44051100  0.90939900  0.50576100  1
  H  515  1  0.57452900  0.17703300  0.69698600  1
  H  518  1  0.57421300  0.17712800  0.76179200  1
  H  524  1  0.58554500  0.20203900  0.60623100  1
  H  525  1  0.43711100  0.19794000  0.62273200  1
  H  527  1  0.51650700  0.23683500  0.61716800  1
  H  528  1  0.51027200  0.20934500  0.65702100  1
  H  530  1  0.60326100  0.26574000  0.60442400  1
  H  534  1  0.51656400  0.79692900  0.61714300  1
  H  541  1  0.57455900  0.85678800  0.69695600  1
  H  543  1  0.58558900  0.83175500  0.60620600  1
  H  546  1  0.43714200  0.83580900  0.62269700  1
  H  548  1  0.51030300  0.82444100  0.65697900  1
  H  550  1  0.57423100  0.85670500  0.76176400  1
  H  554  1  0.35214700  0.13944600  0.98076800  1
  H  556  1  0.38086300  0.04690800  0.89205700  1
  H  558  1  0.36974500  0.13759800  0.91699000  1
  H  565  1  0.51829800  0.12130900  0.91284000  1
  H  567  1  0.43880100  0.12698700  0.95195100  1
  H  568  1  0.44528000  0.08713700  0.92449600  1
  H  573  1  0.58273700  0.20295300  0.85279700  1
  H  577  1  0.50956400  0.21027900  0.80001600  1
  H  578  1  0.51492000  0.23846500  0.83948700  1
  H  580  1  0.60325500  0.26575500  0.85429400  1
  H  581  1  0.51496300  0.79531900  0.83946800  1
  H  583  1  0.60325600  0.76809200  0.85428800  1
  H  587  1  0.38083700  0.98683800  0.89205100  1
  H  589  1  0.36968600  0.89615500  0.91697600  1
  H  592  1  0.58275500  0.83089800  0.85277200  1
  H  599  1  0.51825700  0.91257600  0.91276000  1
  H  604  1  0.43872200  0.90674300  0.95198700  1
  H  605  1  0.44523200  0.94659500  0.92454300  1
  H  606  1  0.50955500  0.82353500  0.80002100  1
  H  607  1  0.83388200  0.39341800  0.54108500  1
  H  615  1  0.82543500  0.48447800  0.56698800  1
  H  620  1  0.76095900  0.44649000  0.53397700  1
  H  621  1  0.76606800  0.40704100  0.50573100  1
  H  626  1  0.82540900  0.54928900  0.56698500  1
  H  627  1  0.76092000  0.58724700  0.53399300  1
  H  629  1  0.85441900  0.64181300  0.47835600  1
  H  631  1  0.83381700  0.64035200  0.54107600  1
  H  639  1  0.76598300  0.62671800  0.50576900  1
  H  644  1  0.63202000  0.35445500  0.69697500  1
  H  646  1  0.62097800  0.32943600  0.60622500  1
  H  649  1  0.76942500  0.33352800  0.62276800  1
  H  651  1  0.68999800  0.29458700  0.61717100  1
  H  652  1  0.69626800  0.32211600  0.65699300  1
  H  654  1  0.63233500  0.35436700  0.76178600  1
  H  659  1  0.63197200  0.67934800  0.69698900  1
  H  661  1  0.62098200  0.70436600  0.60621700  1
  H  664  1  0.76941200  0.70023800  0.62276800  1
  H  666  1  0.69002700  0.73915400  0.61718400  1
  H  667  1  0.69623900  0.71165000  0.65703200  1
  H  669  1  0.60329600  0.76805700  0.60441300  1
  H  671  1  0.63227900  0.67944900  0.76180000  1
  H  672  1  0.83691500  0.39379100  0.91693800  1
  H  675  1  0.62378400  0.32855700  0.85278300  1
  H  685  1  0.69699200  0.32115200  0.80004900  1
  H  686  1  0.69155500  0.29293900  0.83949500  1
  H  689  1  0.82573300  0.48448000  0.89201300  1
  H  691  1  0.68833400  0.41021000  0.91277700  1
  H  693  1  0.76789700  0.40437400  0.95198400  1
  H  694  1  0.76136100  0.44421800  0.92453500  1
  H  699  1  0.82569100  0.54928600  0.89202100  1
  H  700  1  0.76126700  0.58953400  0.92451000  1
  H  702  1  0.83681400  0.63997500  0.91694900  1
  H  705  1  0.62375300  0.70529700  0.85280800  1
  H  712  1  0.68824600  0.62367700  0.91285600  1
  H  717  1  0.76777700  0.62937900  0.95196500  1
  H  718  1  0.69693300  0.71263600  0.80003500  1
  H  719  1  0.69155800  0.74084100  0.83949000  1
  H  721  1  0.85440300  0.64183800  0.98073000  1
  H  722  1  0.87213700  0.39381000  0.03976300  1
  H  726  1  0.10564500  0.26566400  0.10248200  1
  H  727  1  0.07663120  0.35430300  0.19497000  1
  H  729  1  0.08515320  0.32845500  0.10395100  1
  H  739  1  0.01198020  0.32116300  0.15673600  1
  H  740  1  0.01733520  0.29294200  0.11728900  1
  H  743  1  0.88327400  0.48449100  0.06468400  1
  H  745  1  0.02070620  0.41009200  0.04389600  1
  H  747  1  0.94118800  0.40438700  0.00476900  1
  H  748  1  0.94769800  0.44424300  0.03221100  1
  H  753  1  0.88322800  0.54929400  0.06469100  1
  H  754  1  0.94760400  0.58956200  0.03219200  1
  H  756  1  0.87203700  0.63997500  0.03977400  1
  H  759  1  0.07657320  0.67944700  0.19496700  1
  H  761  1  0.08511120  0.70527300  0.10396400  1
  H  768  1  0.02061820  0.62358900  0.04396700  1
  H  773  1  0.94107100  0.62940900  0.00474700  1
  H  774  1  0.01190820  0.71261400  0.15671400  1
  H  775  1  0.01731920  0.74084400  0.11727900  1
  H  776  1  0.10561900  0.76807600  0.10247600  1
  H  782  1  0.07695220  0.35440200  0.25978100  1
  H  784  1  0.08796520  0.32937800  0.35054900  1
  H  791  1  0.93953300  0.33351200  0.33399300  1
  H  793  1  0.01892520  0.29459000  0.33960100  1
  H  794  1  0.01270020  0.32208100  0.29974800  1
  H  795  1  0.88352400  0.48448300  0.38973400  1
  H  796  1  0.88349800  0.54930000  0.38973200  1
  H  802  1  0.07691320  0.67934200  0.25977700  1
  H  804  1  0.08796820  0.70434700  0.35053200  1
  H  811  1  0.93952300  0.70024600  0.33397300  1
  H  813  1  0.01894820  0.73919600  0.33959600  1
  H  814  1  0.01268020  0.71167200  0.29976700  1
  H  815  1  0.85451300  0.39196200  0.47836700  1
  H  816  1  0.87510900  0.39342300  0.41564800  1
  H  825  1  0.94801300  0.44651700  0.42274800  1
  H  826  1  0.94293600  0.40705400  0.45097800  1
  H  831  1  0.94797400  0.58729000  0.42277300  1
  H  833  1  0.87504700  0.64035700  0.41564000  1
  H  837  1  0.94285200  0.62674200  0.45101600  1
  H  838  1  0.85455500  0.39194000  0.98070500  1
  H  845  1  0.32809600  0.04691300  0.06473300  1
  H  847  1  0.33924600  0.13761000  0.03980100  1
  H  848  1  0.13469100  0.17705100  0.19498800  1
  H  855  1  0.19067100  0.12119600  0.04398000  1
  H  857  1  0.27022200  0.12700500  0.00477500  1
  H  858  1  0.26370100  0.08716700  0.03223500  1
  H  863  1  0.12614000  0.20287500  0.10396600  1
  H  867  1  0.19934500  0.21024200  0.15671400  1
  H  868  1  0.19392500  0.23846000  0.11727100  1
  H  869  1  0.19393400  0.79530800  0.11727400  1
  H  872  1  0.32807000  0.98684100  0.06473000  1
  H  874  1  0.33920400  0.89615200  0.03980200  1
  H  877  1  0.13467800  0.85668600  0.19498100  1
  H  879  1  0.12613600  0.83085500  0.10395500  1
  H  886  1  0.19063800  0.91244400  0.04388400  1
  H  891  1  0.27016600  0.90673200  0.00479400  1
  H  892  1  0.26365600  0.94659300  0.03222800  1
  H  893  1  0.19930900  0.82350700  0.15673300  1
  H  894  1  0.13437900  0.17696600  0.25980000  1
  H  895  1  0.32782100  0.04691700  0.38974800  1
  H  902  1  0.10565400  0.26569000  0.35234500  1
  H  910  1  0.12335000  0.20200200  0.35056800  1
  H  911  1  0.27179800  0.19796300  0.33407800  1
  H  913  1  0.19237400  0.23683100  0.33961500  1
  H  914  1  0.19863200  0.20930800  0.29978400  1
  H  918  1  0.10569600  0.76804000  0.35234200  1
  H  919  1  0.19241600  0.79693400  0.33960900  1
  H  924  1  0.13438900  0.85676900  0.25979200  1
  H  926  1  0.12338200  0.83173600  0.35055200  1
  H  927  1  0.32780800  0.98683300  0.38975900  1
  H  934  1  0.27181800  0.83580900  0.33405800  1
  H  936  1  0.19865100  0.82442800  0.29975600  1
  H  941  1  0.33625800  0.13799200  0.41565900  1
  H  945  1  0.26334800  0.08490600  0.42278100  1
  H  946  1  0.26844100  0.12437200  0.45100800  1
  H  951  1  0.35682500  0.89433400  0.47840200  1
  H  953  1  0.33622900  0.89575600  0.41569500  1
  H  957  1  0.26333500  0.94886400  0.42275900  1
  H  958  1  0.26839200  0.90939900  0.45098900  1
  H  960  1  0.35679500  0.89429200  0.98075500  1
  C  1  1  0.99528100  0.03405500  0.47838000  1
  C  2  1  0.99529300  0.11133200  0.47837200  1
  C  4  1  0.00804400  0.09240200  0.51029800  1
  C  5  1  0.00655000  0.05356400  0.51086400  1
  C  6  1  0.01683900  0.03372700  0.54302700  1
  C  10  1  0.10091800  0.13482000  0.56007700  1
  C  13  1  0.14687000  0.13565100  0.56103000  1
  C  14  1  0.17184900  0.11606400  0.53992300  1
  C  16  1  0.07634400  0.11304000  0.53293600  1
  C  19  1  0.01682900  0.99532500  0.54303200  1
  C  20  1  0.99527100  0.99971400  0.47838600  1
  C  21  1  0.00801600  0.94137700  0.51032000  1
  C  22  1  0.00653200  0.98021400  0.51087800  1
  C  26  1  0.10091800  0.89894500  0.56005000  1
  C  29  1  0.14687200  0.89809400  0.56097300  1
  C  30  1  0.17183700  0.91773200  0.53989800  1
  C  32  1  0.07632800  0.92073900  0.53293000  1
  C  36  1  0.09867200  0.18087400  0.60678800  1
  C  37  1  0.14430500  0.18214900  0.60733800  1
  C  39  1  0.23540400  0.23319000  0.69031700  1
  C  40  1  0.23422200  0.23367100  0.65147000  1
  C  41  1  0.22508900  0.20104500  0.71017500  1
  C  42  1  0.22487500  0.20110400  0.74857800  1
  C  46  1  0.16710200  0.21001700  0.62928300  1
  C  49  1  0.24642800  0.26574200  0.63253800  1
  C  51  1  0.24642900  0.26574800  0.70982100  1
  C  52  1  0.23513200  0.23327000  0.76841700  1
  C  53  1  0.24642800  0.26575000  0.74890200  1
  C  55  1  0.24643300  0.76807000  0.70981500  1
  C  56  1  0.24642500  0.76807600  0.74889400  1
  C  57  1  0.23426500  0.80013400  0.65145600  1
  C  58  1  0.23542800  0.80062800  0.69030400  1
  C  59  1  0.22511300  0.83277700  0.71015100  1
  C  60  1  0.22488700  0.83272500  0.74855600  1
  C  64  1  0.09869800  0.85285200  0.60672500  1
  C  65  1  0.14433000  0.85160200  0.60727700  1
  C  67  1  0.16714100  0.82375700  0.62924400  1
  C  69  1  0.23514000  0.80056200  0.76839700  1
  C  71  1  0.99531200  0.11133300  0.98076800  1
  C  72  1  0.00757500  0.09241100  0.94870500  1
  C  73  1  0.00633400  0.05356200  0.94821300  1
  C  75  1  0.01660100  0.03371000  0.91605600  1
  C  79  1  0.14075100  0.18419800  0.84996500  1
  C  81  1  0.14304700  0.13735600  0.89589400  1
  C  82  1  0.09741400  0.13685900  0.89728300  1
  C  84  1  0.09479800  0.18338100  0.85099500  1
  C  86  1  0.07466100  0.11483200  0.92512800  1
  C  89  1  0.99528400  0.03405100  0.98076300  1
  C  90  1  0.01658500  0.99530400  0.91605100  1
  C  91  1  0.23358900  0.23385100  0.80725600  1
  C  94  1  0.06979500  0.20459400  0.83154400  1
  C  96  1  0.16531200  0.21129200  0.82809700  1
  C  99  1  0.24642100  0.26575300  0.82618500  1
  C  102  1  0.24642600  0.76808700  0.82617700  1
  C  104  1  0.99526600  0.99969800  0.98076000  1
  C  105  1  0.00751000  0.94133900  0.94870200  1
  C  106  1  0.00630000  0.98018600  0.94820500  1
  C  110  1  0.23360900  0.79998600  0.80723900  1
  C  113  1  0.14075000  0.84956200  0.85000100  1
  C  115  1  0.14301400  0.89642400  0.89591000  1
  C  116  1  0.09738300  0.89687400  0.89733000  1
  C  118  1  0.09479600  0.85031700  0.85107500  1
  C  120  1  0.06980500  0.82902000  0.83170300  1
  C  122  1  0.07460600  0.91890200  0.92516100  1
  C  123  1  0.16532200  0.82250800  0.82809400  1
  C  128  1  0.39199900  0.39655700  0.56001100  1
  C  131  1  0.34604500  0.39568900  0.56091000  1
  C  132  1  0.49762400  0.53642400  0.47835800  1
  C  133  1  0.48637100  0.47784200  0.51084800  1
  C  134  1  0.48488500  0.43900000  0.51027900  1
  C  137  1  0.32107800  0.41529400  0.53980500  1
  C  139  1  0.41658100  0.41837300  0.53290300  1
  C  142  1  0.47606800  0.49768300  0.54300200  1
  C  143  1  0.48633800  0.55592700  0.51084200  1
  C  144  1  0.48482300  0.59476900  0.51027100  1
  C  145  1  0.47605500  0.53608600  0.54300200  1
  C  148  1  0.49759500  0.61370200  0.47835600  1
  C  152  1  0.39195600  0.63715500  0.56007200  1
  C  155  1  0.34600300  0.63799000  0.56101700  1
  C  156  1  0.32102500  0.61841500  0.53989300  1
  C  158  1  0.41652600  0.61536900  0.53293300  1
  C  160  1  0.25863300  0.29781200  0.65147000  1
  C  161  1  0.25745700  0.29830300  0.69031500  1
  C  162  1  0.26778800  0.33044700  0.71016700  1
  C  163  1  0.26800500  0.33039200  0.74857200  1
  C  167  1  0.39421100  0.35051000  0.60672800  1
  C  168  1  0.34857900  0.34925300  0.60727700  1
  C  170  1  0.32576400  0.32142400  0.62926100  1
  C  173  1  0.25772700  0.29823200  0.76841100  1
  C  175  1  0.25744700  0.73550700  0.69031700  1
  C  176  1  0.25863100  0.73598500  0.65147300  1
  C  177  1  0.26775200  0.70336100  0.71017500  1
  C  178  1  0.26795400  0.70342100  0.74858100  1
  C  182  1  0.39419100  0.68318200  0.60681000  1
  C  183  1  0.34855900  0.68447000  0.60734300  1
  C  185  1  0.32575800  0.71233100  0.62928800  1
  C  188  1  0.24645900  0.76805900  0.63252700  1
  C  190  1  0.25770400  0.73559200  0.76841100  1
  C  193  1  0.25925700  0.29765000  0.80725000  1
  C  196  1  0.35214400  0.34717300  0.85003100  1
  C  198  1  0.34990500  0.39404400  0.89592900  1
  C  199  1  0.39553800  0.39448900  0.89734100  1
  C  201  1  0.39809700  0.34790700  0.85111100  1
  C  202  1  0.42307900  0.32662100  0.83171700  1
  C  204  1  0.32755500  0.32013100  0.82812200  1
  C  207  1  0.48663700  0.47783400  0.94816100  1
  C  208  1  0.48544000  0.43898600  0.94865300  1
  C  212  1  0.41832900  0.41652700  0.92515300  1
  C  215  1  0.47633100  0.49768100  0.91601200  1
  C  216  1  0.48658200  0.55594100  0.94817200  1
  C  217  1  0.48533600  0.59478600  0.94867200  1
  C  218  1  0.47630200  0.53608900  0.91601800  1
  C  223  1  0.25923200  0.73617700  0.80724800  1
  C  226  1  0.35209500  0.68658800  0.84999500  1
  C  228  1  0.34982800  0.63975800  0.89593800  1
  C  229  1  0.39546300  0.63926100  0.89730800  1
  C  231  1  0.39804800  0.68579100  0.85102800  1
  C  233  1  0.42304000  0.70701100  0.83157400  1
  C  235  1  0.41823200  0.61722500  0.92513600  1
  C  236  1  0.32751900  0.71365800  0.82811300  1
  C  240  1  0.49758800  0.61372400  0.98072700  1
  C  243  1  0.73754100  0.29815800  0.18835300  1
  C  244  1  0.73600300  0.29758700  0.14951300  1
  C  245  1  0.74881000  0.26566800  0.13059300  1
  C  250  1  0.64316200  0.34719800  0.10676400  1
  C  252  1  0.64545300  0.39401900  0.06081400  1
  C  253  1  0.59982000  0.39452200  0.05943300  1
  C  255  1  0.59720900  0.34800300  0.10572400  1
  C  256  1  0.57220800  0.32679100  0.12517800  1
  C  258  1  0.66772500  0.32012500  0.12865700  1
  C  261  1  0.50997700  0.43898900  0.00802800  1
  C  262  1  0.50873400  0.47783600  0.00853100  1
  C  266  1  0.57706400  0.41655200  0.03159100  1
  C  269  1  0.51901100  0.49768900  0.04068600  1
  C  270  1  0.50987300  0.59479400  0.00804500  1
  C  271  1  0.50867600  0.55594400  0.00854100  1
  C  272  1  0.51897900  0.53609400  0.04069100  1
  C  277  1  0.73596100  0.73616300  0.14950600  1
  C  278  1  0.73750200  0.73558700  0.18834800  1
  C  282  1  0.64310700  0.68660400  0.10672400  1
  C  284  1  0.64537500  0.63974500  0.06081700  1
  C  285  1  0.59974200  0.63928600  0.05939800  1
  C  287  1  0.59715400  0.68585700  0.10564000  1
  C  289  1  0.57215900  0.70712900  0.12503500  1
  C  291  1  0.57696700  0.61725000  0.03157500  1
  C  292  1  0.66767700  0.71365200  0.12864200  1
  C  297  1  0.74879100  0.76807300  0.13058800  1
  C  298  1  0.72730000  0.33032900  0.20818800  1
  C  299  1  0.72751100  0.33038900  0.24659200  1
  C  300  1  0.73781700  0.29824300  0.26644800  1
  C  301  1  0.73664900  0.29776200  0.30529300  1
  C  305  1  0.60332000  0.39660400  0.39668000  1
  C  307  1  0.60108900  0.35056800  0.34995000  1
  C  308  1  0.64672100  0.34927700  0.34942800  1
  C  310  1  0.64927400  0.39576000  0.39574900  1
  C  312  1  0.66952200  0.32140800  0.32748900  1
  C  317  1  0.72724800  0.70341900  0.20818400  1
  C  318  1  0.74880100  0.76806200  0.20786300  1
  C  319  1  0.72747500  0.70335500  0.24658800  1
  C  320  1  0.73664900  0.73597700  0.30529300  1
  C  321  1  0.73780400  0.73549600  0.26644500  1
  C  325  1  0.60327800  0.63722300  0.39673800  1
  C  327  1  0.60107200  0.68326700  0.35001600  1
  C  328  1  0.64670500  0.68453000  0.34947800  1
  C  330  1  0.64923200  0.63809900  0.39585100  1
  C  332  1  0.66951900  0.71236200  0.32750000  1
  C  337  1  0.49764000  0.49735100  0.47836100  1
  C  338  1  0.49767200  0.42007300  0.47836700  1
  C  339  1  0.51043700  0.43900800  0.44645400  1
  C  340  1  0.50892600  0.47784700  0.44587400  1
  C  342  1  0.67424600  0.41533500  0.41687600  1
  C  344  1  0.57874500  0.41839800  0.42381100  1
  C  347  1  0.51921500  0.49768900  0.41371800  1
  C  348  1  0.51037600  0.59476900  0.44644300  1
  C  349  1  0.50889300  0.55593000  0.44587200  1
  C  350  1  0.51920200  0.53609100  0.41371800  1
  C  354  1  0.67419400  0.61850000  0.41696400  1
  C  356  1  0.57868600  0.61540700  0.42384100  1
  C  359  1  0.49767200  0.49734500  0.98071400  1
  C  360  1  0.49771800  0.42005400  0.98070500  1
  C  361  1  0.49764300  0.53643200  0.98071900  1
  C  362  1  0.98898400  0.05356300  0.00858100  1
  C  363  1  0.98777400  0.09241100  0.00809900  1
  C  364  1  0.97868400  0.03371400  0.04073300  1
  C  369  1  0.85449400  0.18422100  0.10673300  1
  C  371  1  0.85224600  0.13735300  0.06083200  1
  C  372  1  0.89787800  0.13690000  0.05942100  1
  C  374  1  0.90044700  0.18346700  0.10566800  1
  C  376  1  0.92066700  0.11486000  0.03160800  1
  C  379  1  0.97867800  0.99530700  0.04073300  1
  C  380  1  0.76162100  0.23375700  0.14952400  1
  C  381  1  0.76009900  0.23318900  0.18836200  1
  C  384  1  0.92543500  0.20476700  0.12504200  1
  C  386  1  0.82991500  0.21127000  0.12864100  1
  C  390  1  0.98895100  0.98018900  0.00857800  1
  C  391  1  0.98771900  0.94134100  0.00808000  1
  C  395  1  0.76008600  0.80054900  0.18835600  1
  C  396  1  0.76160800  0.79998000  0.14951800  1
  C  400  1  0.85448100  0.84956400  0.10677400  1
  C  402  1  0.85221700  0.89639300  0.06083400  1
  C  403  1  0.89784900  0.89688000  0.05945700  1
  C  405  1  0.90043400  0.85036400  0.10575000  1
  C  407  1  0.92542200  0.82914600  0.12521000  1
  C  409  1  0.92062100  0.91889900  0.03161700  1
  C  410  1  0.82989900  0.82248800  0.12865400  1
  C  416  1  0.89436800  0.13481900  0.39672200  1
  C  418  1  0.89658100  0.18091800  0.35004900  1
  C  419  1  0.85095200  0.18216200  0.34949400  1
  C  421  1  0.84841200  0.13566700  0.39579600  1
  C  423  1  0.74882300  0.26568600  0.32423100  1
  C  424  1  0.77036000  0.20102700  0.20820200  1
  C  425  1  0.74882000  0.26567600  0.20786800  1
  C  426  1  0.77015500  0.20097500  0.24660600  1
  C  427  1  0.76100100  0.23360200  0.30530200  1
  C  428  1  0.75983600  0.23312300  0.26645600  1
  C  432  1  0.82813400  0.20999800  0.32752200  1
  C  435  1  0.74882300  0.26568000  0.24694700  1
  C  436  1  0.74881700  0.76805700  0.24694200  1
  C  437  1  0.74885600  0.76804300  0.32422800  1
  C  440  1  0.77035300  0.83271100  0.20819500  1
  C  441  1  0.77015500  0.83276100  0.24659900  1
  C  442  1  0.75984600  0.80061200  0.26644900  1
  C  443  1  0.76103300  0.80012300  0.30529300  1
  C  448  1  0.89435800  0.89895600  0.39668600  1
  C  450  1  0.89660000  0.85288500  0.34999400  1
  C  451  1  0.85096500  0.85161900  0.34943900  1
  C  453  1  0.84840800  0.89813500  0.39573000  1
  C  455  1  0.82816300  0.82375500  0.32749400  1
  C  457  1  0.98875300  0.05355500  0.44588800  1
  C  458  1  0.98727100  0.09239300  0.44645400  1
  C  459  1  0.97846000  0.03371200  0.41373400  1
  C  462  1  0.82345000  0.11602400  0.41686800  1
  C  464  1  0.91895700  0.11302700  0.42384100  1
  C  467  1  0.97845400  0.99531000  0.41374200  1
  C  468  1  0.98873700  0.98020500  0.44590200  1
  C  469  1  0.98723500  0.94136600  0.44646800  1
  C  470  1  0.99999400  0.92244500  0.47839700  1
  C  474  1  0.82343000  0.91773700  0.41682900  1
  C  476  1  0.91893400  0.92074200  0.42382500  1
  C  479  1  0.99997100  0.92240600  0.98075500  1
  C  481  1  0.35211200  0.03405500  0.47838000  1
  C  482  1  0.35212400  0.11133200  0.47837200  1
  C  484  1  0.36487500  0.09240200  0.51029800  1
  C  485  1  0.36338100  0.05356400  0.51086400  1
  C  486  1  0.37367000  0.03372700  0.54302700  1
  C  490  1  0.45774900  0.13482000  0.56007700  1
  C  493  1  0.50370100  0.13565100  0.56103000  1
  C  494  1  0.52868000  0.11606400  0.53992300  1
  C  496  1  0.43317500  0.11304000  0.53293600  1
  C  499  1  0.37366000  0.99532500  0.54303200  1
  C  500  1  0.35210200  0.99971400  0.47838600  1
  C  501  1  0.36484700  0.94137700  0.51032000  1
  C  502  1  0.36336300  0.98021400  0.51087800  1
  C  506  1  0.45774900  0.89894500  0.56005000  1
  C  509  1  0.50370300  0.89809400  0.56097300  1
  C  510  1  0.52866800  0.91773200  0.53989800  1
  C  512  1  0.43315900  0.92073900  0.53293000  1
  C  516  1  0.45550300  0.18087400  0.60678800  1
  C  517  1  0.50113600  0.18214900  0.60733800  1
  C  519  1  0.59223500  0.23319000  0.69031700  1
  C  520  1  0.59105300  0.23367100  0.65147000  1
  C  521  1  0.58192000  0.20104500  0.71017500  1
  C  522  1  0.58170600  0.20110400  0.74857800  1
  C  526  1  0.52393300  0.21001700  0.62928300  1
  C  529  1  0.60325900  0.26574200  0.63253800  1
  C  531  1  0.60326000  0.26574800  0.70982100  1
  C  532  1  0.59196300  0.23327000  0.76841700  1
  C  533  1  0.60325900  0.26575000  0.74890200  1
  C  535  1  0.60326400  0.76807000  0.70981500  1
  C  536  1  0.60325600  0.76807600  0.74889400  1
  C  537  1  0.59109600  0.80013400  0.65145600  1
  C  538  1  0.59225900  0.80062800  0.69030400  1
  C  539  1  0.58194400  0.83277700  0.71015100  1
  C  540  1  0.58171800  0.83272500  0.74855600  1
  C  544  1  0.45552900  0.85285200  0.60672500  1
  C  545  1  0.50116100  0.85160200  0.60727700  1
  C  547  1  0.52397200  0.82375700  0.62924400  1
  C  549  1  0.59197100  0.80056200  0.76839700  1
  C  551  1  0.35214300  0.11133300  0.98076800  1
  C  552  1  0.36440600  0.09241100  0.94870500  1
  C  553  1  0.36316500  0.05356200  0.94821300  1
  C  555  1  0.37343200  0.03371000  0.91605600  1
  C  559  1  0.49758200  0.18419800  0.84996500  1
  C  561  1  0.49987800  0.13735600  0.89589400  1
  C  562  1  0.45424500  0.13685900  0.89728300  1
  C  564  1  0.45162900  0.18338100  0.85099500  1
  C  566  1  0.43149200  0.11483200  0.92512800  1
  C  569  1  0.35211500  0.03405100  0.98076300  1
  C  570  1  0.37341600  0.99530400  0.91605100  1
  C  571  1  0.59042000  0.23385100  0.80725600  1
  C  574  1  0.42662600  0.20459400  0.83154400  1
  C  576  1  0.52214300  0.21129200  0.82809700  1
  C  579  1  0.60325200  0.26575300  0.82618500  1
  C  582  1  0.60325700  0.76808700  0.82617700  1
  C  584  1  0.35209700  0.99969800  0.98076000  1
  C  585  1  0.36434100  0.94133900  0.94870200  1
  C  586  1  0.36313100  0.98018600  0.94820500  1
  C  590  1  0.59044000  0.79998600  0.80723900  1
  C  593  1  0.49758100  0.84956200  0.85000100  1
  C  595  1  0.49984500  0.89642400  0.89591000  1
  C  596  1  0.45421400  0.89687400  0.89733000  1
  C  598  1  0.45162700  0.85031700  0.85107500  1
  C  600  1  0.42663600  0.82902000  0.83170300  1
  C  602  1  0.43143700  0.91890200  0.92516100  1
  C  603  1  0.52215300  0.82250800  0.82809400  1
  C  608  1  0.74883000  0.39655700  0.56001100  1
  C  611  1  0.70287600  0.39568900  0.56091000  1
  C  612  1  0.85445500  0.53642400  0.47835800  1
  C  613  1  0.84320200  0.47784200  0.51084800  1
  C  614  1  0.84171600  0.43900000  0.51027900  1
  C  617  1  0.67790900  0.41529400  0.53980500  1
  C  619  1  0.77341200  0.41837300  0.53290300  1
  C  622  1  0.83289900  0.49768300  0.54300200  1
  C  623  1  0.84316900  0.55592700  0.51084200  1
  C  624  1  0.84165400  0.59476900  0.51027100  1
  C  625  1  0.83288600  0.53608600  0.54300200  1
  C  628  1  0.85442600  0.61370200  0.47835600  1
  C  632  1  0.74878700  0.63715500  0.56007200  1
  C  635  1  0.70283400  0.63799000  0.56101700  1
  C  636  1  0.67785600  0.61841500  0.53989300  1
  C  638  1  0.77335700  0.61536900  0.53293300  1
  C  640  1  0.61546400  0.29781200  0.65147000  1
  C  641  1  0.61428800  0.29830300  0.69031500  1
  C  642  1  0.62461900  0.33044700  0.71016700  1
  C  643  1  0.62483600  0.33039200  0.74857200  1
  C  647  1  0.75104200  0.35051000  0.60672800  1
  C  648  1  0.70541000  0.34925300  0.60727700  1
  C  650  1  0.68259500  0.32142400  0.62926100  1
  C  653  1  0.61455800  0.29823200  0.76841100  1
  C  655  1  0.61427800  0.73550700  0.69031700  1
  C  656  1  0.61546200  0.73598500  0.65147300  1
  C  657  1  0.62458300  0.70336100  0.71017500  1
  C  658  1  0.62478500  0.70342100  0.74858100  1
  C  662  1  0.75102200  0.68318200  0.60681000  1
  C  663  1  0.70539000  0.68447000  0.60734300  1
  C  665  1  0.68258900  0.71233100  0.62928800  1
  C  668  1  0.60329000  0.76805900  0.63252700  1
  C  670  1  0.61453500  0.73559200  0.76841100  1
  C  673  1  0.61608800  0.29765000  0.80725000  1
  C  676  1  0.70897500  0.34717300  0.85003100  1
  C  678  1  0.70673600  0.39404400  0.89592900  1
  C  679  1  0.75236900  0.39448900  0.89734100  1
  C  681  1  0.75492800  0.34790700  0.85111100  1
  C  682  1  0.77991000  0.32662100  0.83171700  1
  C  684  1  0.68438600  0.32013100  0.82812200  1
  C  687  1  0.84346800  0.47783400  0.94816100  1
  C  688  1  0.84227100  0.43898600  0.94865300  1
  C  692  1  0.77516000  0.41652700  0.92515300  1
  C  695  1  0.83316200  0.49768100  0.91601200  1
  C  696  1  0.84341300  0.55594100  0.94817200  1
  C  697  1  0.84216700  0.59478600  0.94867200  1
  C  698  1  0.83313300  0.53608900  0.91601800  1
  C  703  1  0.61606300  0.73617700  0.80724800  1
  C  706  1  0.70892600  0.68658800  0.84999500  1
  C  708  1  0.70665900  0.63975800  0.89593800  1
  C  709  1  0.75229400  0.63926100  0.89730800  1
  C  711  1  0.75487900  0.68579100  0.85102800  1
  C  713  1  0.77987100  0.70701100  0.83157400  1
  C  715  1  0.77506300  0.61722500  0.92513600  1
  C  716  1  0.68435000  0.71365800  0.82811300  1
  C  720  1  0.85441900  0.61372400  0.98072700  1
  C  723  1  0.09437220  0.29815800  0.18835300  1
  C  724  1  0.09283420  0.29758700  0.14951300  1
  C  725  1  0.10564100  0.26566800  0.13059300  1
  C  730  1  0.99999300  0.34719800  0.10676400  1
  C  732  1  0.00228421  0.39401900  0.06081400  1
  C  733  1  0.95665100  0.39452200  0.05943300  1
  C  735  1  0.95404000  0.34800300  0.10572400  1
  C  736  1  0.92903900  0.32679100  0.12517800  1
  C  738  1  0.02455620  0.32012500  0.12865700  1
  C  741  1  0.86680800  0.43898900  0.00802800  1
  C  742  1  0.86556500  0.47783600  0.00853100  1
  C  746  1  0.93389500  0.41655200  0.03159100  1
  C  749  1  0.87584200  0.49768900  0.04068600  1
  C  750  1  0.86670400  0.59479400  0.00804500  1
  C  751  1  0.86550700  0.55594400  0.00854100  1
  C  752  1  0.87581000  0.53609400  0.04069100  1
  C  757  1  0.09279220  0.73616300  0.14950600  1
  C  758  1  0.09433320  0.73558700  0.18834800  1
  C  762  1  0.99993800  0.68660400  0.10672400  1
  C  764  1  0.00220621  0.63974500  0.06081700  1
  C  765  1  0.95657300  0.63928600  0.05939800  1
  C  767  1  0.95398500  0.68585700  0.10564000  1
  C  769  1  0.92899000  0.70712900  0.12503500  1
  C  771  1  0.93379800  0.61725000  0.03157500  1
  C  772  1  0.02450820  0.71365200  0.12864200  1
  C  777  1  0.10562200  0.76807300  0.13058800  1
  C  778  1  0.08413120  0.33032900  0.20818800  1
  C  779  1  0.08434220  0.33038900  0.24659200  1
  C  780  1  0.09464820  0.29824300  0.26644800  1
  C  781  1  0.09348020  0.29776200  0.30529300  1
  C  785  1  0.96015100  0.39660400  0.39668000  1
  C  787  1  0.95792000  0.35056800  0.34995000  1
  C  788  1  0.00355221  0.34927700  0.34942800  1
  C  790  1  0.00610521  0.39576000  0.39574900  1
  C  792  1  0.02635320  0.32140800  0.32748900  1
  C  797  1  0.08407920  0.70341900  0.20818400  1
  C  798  1  0.10563200  0.76806200  0.20786300  1
  C  799  1  0.08430620  0.70335500  0.24658800  1
  C  800  1  0.09348020  0.73597700  0.30529300  1
  C  801  1  0.09463520  0.73549600  0.26644500  1
  C  805  1  0.96010900  0.63722300  0.39673800  1
  C  807  1  0.95790300  0.68326700  0.35001600  1
  C  808  1  0.00353621  0.68453000  0.34947800  1
  C  810  1  0.00606321  0.63809900  0.39585100  1
  C  812  1  0.02635020  0.71236200  0.32750000  1
  C  817  1  0.85447100  0.49735100  0.47836100  1
  C  818  1  0.85450300  0.42007300  0.47836700  1
  C  819  1  0.86726800  0.43900800  0.44645400  1
  C  820  1  0.86575700  0.47784700  0.44587400  1
  C  822  1  0.03107720  0.41533500  0.41687600  1
  C  824  1  0.93557600  0.41839800  0.42381100  1
  C  827  1  0.87604600  0.49768900  0.41371800  1
  C  828  1  0.86720700  0.59476900  0.44644300  1
  C  829  1  0.86572400  0.55593000  0.44587200  1
  C  830  1  0.87603300  0.53609100  0.41371800  1
  C  834  1  0.03102520  0.61850000  0.41696400  1
  C  836  1  0.93551700  0.61540700  0.42384100  1
  C  839  1  0.85450300  0.49734500  0.98071400  1
  C  840  1  0.85454900  0.42005400  0.98070500  1
  C  841  1  0.85447400  0.53643200  0.98071900  1
  C  842  1  0.34581500  0.05356300  0.00858100  1
  C  843  1  0.34460500  0.09241100  0.00809900  1
  C  844  1  0.33551500  0.03371400  0.04073300  1
  C  849  1  0.21132500  0.18422100  0.10673300  1
  C  851  1  0.20907700  0.13735300  0.06083200  1
  C  852  1  0.25470900  0.13690000  0.05942100  1
  C  854  1  0.25727800  0.18346700  0.10566800  1
  C  856  1  0.27749800  0.11486000  0.03160800  1
  C  859  1  0.33550900  0.99530700  0.04073300  1
  C  860  1  0.11845200  0.23375700  0.14952400  1
  C  861  1  0.11693000  0.23318900  0.18836200  1
  C  864  1  0.28226600  0.20476700  0.12504200  1
  C  866  1  0.18674600  0.21127000  0.12864100  1
  C  870  1  0.34578200  0.98018900  0.00857800  1
  C  871  1  0.34455000  0.94134100  0.00808000  1
  C  875  1  0.11691700  0.80054900  0.18835600  1
  C  876  1  0.11843900  0.79998000  0.14951800  1
  C  880  1  0.21131200  0.84956400  0.10677400  1
  C  882  1  0.20904800  0.89639300  0.06083400  1
  C  883  1  0.25468000  0.89688000  0.05945700  1
  C  885  1  0.25726500  0.85036400  0.10575000  1
  C  887  1  0.28225300  0.82914600  0.12521000  1
  C  889  1  0.27745200  0.91889900  0.03161700  1
  C  890  1  0.18673000  0.82248800  0.12865400  1
  C  896  1  0.25119900  0.13481900  0.39672200  1
  C  898  1  0.25341200  0.18091800  0.35004900  1
  C  899  1  0.20778300  0.18216200  0.34949400  1
  C  901  1  0.20524300  0.13566700  0.39579600  1
  C  903  1  0.10565400  0.26568600  0.32423100  1
  C  904  1  0.12719100  0.20102700  0.20820200  1
  C  905  1  0.10565100  0.26567600  0.20786800  1
  C  906  1  0.12698600  0.20097500  0.24660600  1
  C  907  1  0.11783200  0.23360200  0.30530200  1
  C  908  1  0.11666700  0.23312300  0.26645600  1
  C  912  1  0.18496500  0.20999800  0.32752200  1
  C  915  1  0.10565400  0.26568000  0.24694700  1
  C  916  1  0.10564800  0.76805700  0.24694200  1
  C  917  1  0.10568700  0.76804300  0.32422800  1
  C  920  1  0.12718400  0.83271100  0.20819500  1
  C  921  1  0.12698600  0.83276100  0.24659900  1
  C  922  1  0.11667700  0.80061200  0.26644900  1
  C  923  1  0.11786400  0.80012300  0.30529300  1
  C  928  1  0.25118900  0.89895600  0.39668600  1
  C  930  1  0.25343100  0.85288500  0.34999400  1
  C  931  1  0.20779600  0.85161900  0.34943900  1
  C  933  1  0.20523900  0.89813500  0.39573000  1
  C  935  1  0.18499400  0.82375500  0.32749400  1
  C  937  1  0.34558400  0.05355500  0.44588800  1
  C  938  1  0.34410200  0.09239300  0.44645400  1
  C  939  1  0.33529100  0.03371200  0.41373400  1
  C  942  1  0.18028100  0.11602400  0.41686800  1
  C  944  1  0.27578800  0.11302700  0.42384100  1
  C  947  1  0.33528500  0.99531000  0.41374200  1
  C  948  1  0.34556800  0.98020500  0.44590200  1
  C  949  1  0.34406600  0.94136600  0.44646800  1
  C  950  1  0.35682500  0.92244500  0.47839700  1
  C  954  1  0.18026100  0.91773700  0.41682900  1
  C  956  1  0.27576500  0.92074200  0.42382500  1
  C  959  1  0.35680200  0.92240600  0.98075500  1
  N  8  1  0.02854400  0.11197500  0.53907400  1
  N  11  1  0.07903400  0.15760200  0.58315400  1
  N  12  1  0.16633800  0.15943300  0.58436000  1
  N  15  1  0.19378200  0.09869800  0.52126000  1
  N  24  1  0.02853100  0.92180800  0.53909100  1
  N  27  1  0.07904900  0.87614600  0.58312400  1
  N  28  1  0.16635700  0.87432500  0.58430500  1
  N  31  1  0.19375800  0.93514200  0.52126500  1
  N  43  1  0.21487000  0.20441000  0.63181300  1
  N  62  1  0.21490500  0.82938200  0.63178200  1
  N  77  1  0.02692000  0.11209200  0.91945400  1
  N  80  1  0.16266000  0.16100500  0.87261400  1
  N  83  1  0.07535900  0.15999300  0.87473900  1
  N  92  1  0.21308900  0.20506000  0.82681700  1
  N  95  1  0.04783300  0.22335200  0.81430900  1
  N  108  1  0.02687000  0.92165400  0.91945400  1
  N  111  1  0.21309300  0.82877000  0.82679800  1
  N  114  1  0.16264400  0.87281400  0.87260000  1
  N  117  1  0.07534600  0.87368700  0.87483000  1
  N  121  1  0.04785300  0.81018700  0.81454000  1
  N  129  1  0.41386600  0.37380400  0.58312700  1
  N  130  1  0.32655900  0.37193900  0.58426100  1
  N  136  1  0.46437700  0.41945500  0.53906900  1
  N  138  1  0.29915700  0.43267400  0.52114700  1
  N  150  1  0.46432500  0.61430900  0.53906900  1
  N  153  1  0.41383300  0.65991800  0.58317100  1
  N  154  1  0.32653000  0.66176700  0.58434600  1
  N  157  1  0.29909400  0.60106200  0.52121900  1
  N  165  1  0.27800300  0.32705700  0.63179900  1
  N  180  1  0.27798800  0.70673400  0.63180200  1
  N  194  1  0.27979100  0.32642300  0.82681400  1
  N  197  1  0.33026400  0.37043700  0.87262500  1
  N  200  1  0.41756400  0.37128600  0.87484700  1
  N  203  1  0.44502000  0.30779600  0.81453400  1
  N  210  1  0.46606000  0.41928800  0.91942400  1
  N  221  1  0.46596600  0.61447600  0.91943200  1
  N  224  1  0.27974600  0.70740700  0.82683100  1
  N  227  1  0.33019900  0.66338700  0.87264700  1
  N  230  1  0.41750200  0.66240400  0.87476700  1
  N  234  1  0.44499100  0.72577600  0.81433400  1
  N  248  1  0.71550200  0.32636000  0.12993100  1
  N  251  1  0.66507200  0.37039300  0.08411500  1
  N  254  1  0.57776800  0.37138700  0.08197600  1
  N  257  1  0.55024700  0.30803200  0.14241500  1
  N  264  1  0.52933000  0.41931000  0.03728200  1
  N  275  1  0.52923300  0.61447900  0.03729100  1
  N  280  1  0.71544700  0.70738700  0.12993700  1
  N  283  1  0.66500000  0.66335200  0.08412800  1
  N  286  1  0.57770300  0.66247500  0.08189600  1
  N  290  1  0.55020500  0.72594100  0.14221900  1
  N  303  1  0.71729200  0.32701100  0.32497000  1
  N  306  1  0.58144300  0.37383700  0.37358200  1
  N  309  1  0.66874700  0.37198000  0.37242500  1
  N  323  1  0.71728300  0.70672600  0.32495900  1
  N  326  1  0.58141100  0.65997100  0.37361500  1
  N  329  1  0.66871800  0.66184600  0.37250200  1
  N  341  1  0.53094500  0.41946300  0.41766400  1
  N  343  1  0.69617400  0.43269100  0.43555300  1
  N  352  1  0.53089300  0.61432200  0.41766400  1
  N  355  1  0.69611000  0.60112200  0.43563200  1
  N  366  1  0.96839800  0.11210900  0.03732800  1
  N  370  1  0.83260700  0.16096500  0.08413400  1
  N  373  1  0.91990800  0.16009300  0.08192300  1
  N  382  1  0.78214500  0.20499500  0.12993800  1
  N  385  1  0.94738000  0.22360200  0.14220800  1
  N  393  1  0.96835600  0.92165100  0.03732100  1
  N  398  1  0.78212900  0.82874500  0.12993200  1
  N  401  1  0.83258500  0.87275900  0.08411700  1
  N  404  1  0.91988800  0.87374000  0.08200600  1
  N  408  1  0.94737100  0.81038400  0.14245400  1
  N  417  1  0.91623200  0.15762300  0.37365000  1
  N  420  1  0.82892500  0.15943200  0.37246400  1
  N  429  1  0.78037000  0.20437000  0.32499200  1
  N  445  1  0.78039600  0.82936600  0.32497300  1
  N  449  1  0.91624200  0.87616200  0.37362000  1
  N  452  1  0.82893500  0.87434900  0.37240900  1
  N  460  1  0.96675600  0.11195400  0.41767800  1
  N  463  1  0.80153000  0.09860900  0.43549500  1
  N  472  1  0.96673700  0.92179900  0.41768900  1
  N  475  1  0.80149800  0.93511500  0.43548100  1
  N  488  1  0.38537500  0.11197500  0.53907400  1
  N  491  1  0.43586500  0.15760200  0.58315400  1
  N  492  1  0.52316900  0.15943300  0.58436000  1
  N  495  1  0.55061300  0.09869800  0.52126000  1
  N  504  1  0.38536200  0.92180800  0.53909100  1
  N  507  1  0.43588000  0.87614600  0.58312400  1
  N  508  1  0.52318800  0.87432500  0.58430500  1
  N  511  1  0.55058900  0.93514200  0.52126500  1
  N  523  1  0.57170100  0.20441000  0.63181300  1
  N  542  1  0.57173600  0.82938200  0.63178200  1
  N  557  1  0.38375100  0.11209200  0.91945400  1
  N  560  1  0.51949100  0.16100500  0.87261400  1
  N  563  1  0.43219000  0.15999300  0.87473900  1
  N  572  1  0.56992000  0.20506000  0.82681700  1
  N  575  1  0.40466400  0.22335200  0.81430900  1
  N  588  1  0.38370100  0.92165400  0.91945400  1
  N  591  1  0.56992400  0.82877000  0.82679800  1
  N  594  1  0.51947500  0.87281400  0.87260000  1
  N  597  1  0.43217700  0.87368700  0.87483000  1
  N  601  1  0.40468400  0.81018700  0.81454000  1
  N  609  1  0.77069700  0.37380400  0.58312700  1
  N  610  1  0.68339000  0.37193900  0.58426100  1
  N  616  1  0.82120800  0.41945500  0.53906900  1
  N  618  1  0.65598800  0.43267400  0.52114700  1
  N  630  1  0.82115600  0.61430900  0.53906900  1
  N  633  1  0.77066400  0.65991800  0.58317100  1
  N  634  1  0.68336100  0.66176700  0.58434600  1
  N  637  1  0.65592500  0.60106200  0.52121900  1
  N  645  1  0.63483400  0.32705700  0.63179900  1
  N  660  1  0.63481900  0.70673400  0.63180200  1
  N  674  1  0.63662200  0.32642300  0.82681400  1
  N  677  1  0.68709500  0.37043700  0.87262500  1
  N  680  1  0.77439500  0.37128600  0.87484700  1
  N  683  1  0.80185100  0.30779600  0.81453400  1
  N  690  1  0.82289100  0.41928800  0.91942400  1
  N  701  1  0.82279700  0.61447600  0.91943200  1
  N  704  1  0.63657700  0.70740700  0.82683100  1
  N  707  1  0.68703000  0.66338700  0.87264700  1
  N  710  1  0.77433300  0.66240400  0.87476700  1
  N  714  1  0.80182200  0.72577600  0.81433400  1
  N  728  1  0.07233320  0.32636000  0.12993100  1
  N  731  1  0.02190320  0.37039300  0.08411500  1
  N  734  1  0.93459900  0.37138700  0.08197600  1
  N  737  1  0.90707800  0.30803200  0.14241500  1
  N  744  1  0.88616100  0.41931000  0.03728200  1
  N  755  1  0.88606400  0.61447900  0.03729100  1
  N  760  1  0.07227820  0.70738700  0.12993700  1
  N  763  1  0.02183120  0.66335200  0.08412800  1
  N  766  1  0.93453400  0.66247500  0.08189600  1
  N  770  1  0.90703600  0.72594100  0.14221900  1
  N  783  1  0.07412320  0.32701100  0.32497000  1
  N  786  1  0.93827400  0.37383700  0.37358200  1
  N  789  1  0.02557820  0.37198000  0.37242500  1
  N  803  1  0.07411420  0.70672600  0.32495900  1
  N  806  1  0.93824200  0.65997100  0.37361500  1
  N  809  1  0.02554920  0.66184600  0.37250200  1
  N  821  1  0.88777600  0.41946300  0.41766400  1
  N  823  1  0.05300520  0.43269100  0.43555300  1
  N  832  1  0.88772400  0.61432200  0.41766400  1
  N  835  1  0.05294120  0.60112200  0.43563200  1
  N  846  1  0.32522900  0.11210900  0.03732800  1
  N  850  1  0.18943800  0.16096500  0.08413400  1
  N  853  1  0.27673900  0.16009300  0.08192300  1
  N  862  1  0.13897600  0.20499500  0.12993800  1
  N  865  1  0.30421100  0.22360200  0.14220800  1
  N  873  1  0.32518700  0.92165100  0.03732100  1
  N  878  1  0.13896000  0.82874500  0.12993200  1
  N  881  1  0.18941600  0.87275900  0.08411700  1
  N  884  1  0.27671900  0.87374000  0.08200600  1
  N  888  1  0.30420200  0.81038400  0.14245400  1
  N  897  1  0.27306300  0.15762300  0.37365000  1
  N  900  1  0.18575600  0.15943200  0.37246400  1
  N  909  1  0.13720100  0.20437000  0.32499200  1
  N  925  1  0.13722700  0.82936600  0.32497300  1
  N  929  1  0.27307300  0.87616200  0.37362000  1
  N  932  1  0.18576600  0.87434900  0.37240900  1
  N  940  1  0.32358700  0.11195400  0.41767800  1
  N  943  1  0.15836100  0.09860900  0.43549500  1
  N  952  1  0.32356800  0.92179900  0.41768900  1
  N  955  1  0.15832900  0.93511500  0.43548100  1
