# generated using pymatgen
data_H34C53N6
_symmetry_space_group_name_H-M   'P 1'
_cell_length_a   41.80830000
_cell_length_b   41.80830000
_cell_length_c   75.71590000
_cell_angle_alpha   90.00000000
_cell_angle_beta   90.00000000
_cell_angle_gamma   90.00000000
_symmetry_Int_Tables_number   1
_chemical_formula_structural   H34C53N6
_chemical_formula_sum   'H544 C848 N96'
_cell_volume   132346.39208076
_cell_formula_units_Z   16
loop_
 _symmetry_equiv_pos_site_id
 _symmetry_equiv_pos_as_xyz
  1  'x, y, z'
loop_
 _atom_site_type_symbol
 _atom_site_label
 _atom_site_symmetry_multiplicity
 _atom_site_fract_x
 _atom_site_fract_y
 _atom_site_fract_z
 _atom_site_occupancy
  H  25  1  0.15767900  0.22412000  0.07959200  1
  H  26  1  0.16807100  0.24132800  0.10922900  1
  H  27  1  0.16804300  0.25868800  0.14092000  1
  H  28  1  0.15760600  0.27589500  0.17055200  1
  H  29  1  0.05775700  0.27059200  0.16093100  1
  H  30  1  0.05781600  0.22960100  0.08913600  1
  H  31  1  0.07231200  0.31638200  0.11672600  1
  H  32  1  0.97274300  0.33523300  0.11485100  1
  H  33  1  0.96181200  0.27996400  0.12143900  1
  H  34  1  0.07212600  0.18376700  0.13328000  1
  H  35  1  0.96173100  0.22042400  0.12837300  1
  H  36  1  0.97250800  0.16509000  0.13486900  1
  H  42  1  0.08076600  0.21966800  0.05837200  1
  H  43  1  0.08065800  0.28047800  0.19171500  1
  H  44  1  0.04995100  0.13092400  0.14311800  1
  H  45  1  0.05039600  0.36907800  0.10676800  1
  H  70  1  0.34240300  0.27595300  0.57961400  1
  H  71  1  0.33200400  0.25874300  0.60925000  1
  H  72  1  0.33202300  0.24137800  0.64094100  1
  H  73  1  0.34245100  0.22412200  0.67056500  1
  H  74  1  0.44230200  0.22941700  0.66095000  1
  H  75  1  0.44226400  0.27047800  0.58916700  1
  H  76  1  0.42776200  0.18368900  0.61674100  1
  H  77  1  0.52733100  0.16486700  0.61481100  1
  H  78  1  0.53825900  0.22013100  0.62141500  1
  H  79  1  0.42794400  0.31630800  0.63328600  1
  H  80  1  0.53833600  0.27967200  0.62833000  1
  H  81  1  0.52756100  0.33501500  0.63480600  1
  H  87  1  0.41933800  0.28043500  0.55840700  1
  H  88  1  0.41941200  0.21947000  0.69172500  1
  H  89  1  0.45011400  0.36917800  0.64307400  1
  H  90  1  0.44968400  0.13100600  0.60675600  1
  H  115  1  0.77567400  0.65778800  0.32951500  1
  H  116  1  0.75852400  0.66822900  0.35915700  1
  H  117  1  0.74135800  0.66825500  0.39088500  1
  H  118  1  0.72427800  0.65786000  0.42054400  1
  H  119  1  0.72979600  0.55799700  0.41100500  1
  H  120  1  0.77052000  0.55794000  0.33916500  1
  H  121  1  0.68374300  0.57228400  0.36695900  1
  H  122  1  0.66506900  0.47265800  0.36549000  1
  H  123  1  0.72046000  0.46190400  0.37184000  1
  H  124  1  0.81646500  0.57250600  0.38326200  1
  H  125  1  0.78004200  0.46199900  0.37857800  1
  H  126  1  0.83536300  0.47293700  0.38502200  1
  H  132  1  0.78031200  0.58084900  0.30836100  1
  H  133  1  0.71992400  0.58095900  0.44177500  1
  H  134  1  0.86937800  0.55048700  0.39310100  1
  H  135  1  0.63083000  0.54993200  0.35713600  1
  H  160  1  0.72416000  0.84241700  0.82960800  1
  H  161  1  0.74133400  0.83202200  0.85925000  1
  H  162  1  0.75870100  0.83204300  0.89094000  1
  H  163  1  0.77595200  0.84247200  0.92056500  1
  H  164  1  0.77066600  0.94232300  0.91094600  1
  H  165  1  0.72966400  0.94228000  0.83915300  1
  H  166  1  0.81640300  0.92777300  0.86673900  1
  H  167  1  0.83525100  0.02734100  0.86484300  1
  H  168  1  0.77998700  0.03827400  0.87144400  1
  H  169  1  0.68379000  0.92796900  0.88330300  1
  H  170  1  0.72045500  0.03836000  0.87838900  1
  H  171  1  0.66511700  0.02758800  0.88488000  1
  H  177  1  0.71974300  0.91933200  0.80838900  1
  H  178  1  0.78060100  0.91943300  0.94172400  1
  H  179  1  0.63094700  0.95015200  0.89313500  1
  H  180  1  0.86909300  0.94968500  0.85676900  1
  H  205  1  0.66249800  0.72455700  0.57965100  1
  H  206  1  0.67274700  0.74177200  0.60924500  1
  H  207  1  0.67274500  0.75841700  0.64090400  1
  H  208  1  0.66249800  0.77567600  0.67048800  1
  H  209  1  0.56257300  0.77068500  0.66099300  1
  H  210  1  0.56257300  0.72952500  0.58914700  1
  H  211  1  0.57685000  0.81683300  0.61797600  1
  H  212  1  0.47718800  0.83554300  0.61676200  1
  H  213  1  0.46647000  0.77998700  0.62221400  1
  H  214  1  0.57680700  0.68331400  0.63217600  1
  H  215  1  0.46645100  0.72022800  0.62793900  1
  H  216  1  0.47713300  0.66466500  0.63339100  1
  H  222  1  0.58466200  0.71648700  0.55888000  1
  H  223  1  0.58464300  0.78377500  0.69125000  1
  H  224  1  0.55477800  0.62953100  0.64128900  1
  H  225  1  0.55483300  0.87064100  0.60885800  1
  H  250  1  0.83765200  0.77559500  0.07962900  1
  H  251  1  0.82739400  0.75838800  0.10922300  1
  H  252  1  0.82737900  0.74182900  0.14089800  1
  H  253  1  0.83761900  0.72468700  0.17050600  1
  H  254  1  0.93754600  0.72955900  0.16100300  1
  H  255  1  0.93757300  0.77053400  0.08912300  1
  H  256  1  0.92330300  0.68325000  0.11794200  1
  H  257  1  0.02297000  0.66456200  0.11672900  1
  H  258  1  0.03367600  0.72012300  0.12217700  1
  H  259  1  0.92330300  0.81674700  0.13219500  1
  H  260  1  0.03367700  0.77987400  0.12795600  1
  H  261  1  0.02297200  0.83542300  0.13344000  1
  H  267  1  0.91551200  0.78361000  0.05886200  1
  H  268  1  0.91543600  0.71663100  0.19128500  1
  H  269  1  0.94536100  0.87052100  0.14137800  1
  H  270  1  0.94534600  0.62945900  0.10879400  1
  H  295  1  0.27549100  0.16245800  0.82962100  1
  H  296  1  0.25830800  0.17272000  0.85921800  1
  H  297  1  0.24168700  0.17273400  0.89088200  1
  H  298  1  0.22450100  0.16249800  0.92048200  1
  H  299  1  0.22952400  0.06256800  0.91100300  1
  H  300  1  0.27052500  0.06253800  0.83913300  1
  H  301  1  0.18327000  0.07681900  0.86796400  1
  H  302  1  0.16457600  0.97715100  0.86674500  1
  H  303  1  0.22013400  0.96644000  0.87219900  1
  H  304  1  0.31678700  0.07680800  0.88215400  1
  H  305  1  0.27989200  0.96643500  0.87796400  1
  H  306  1  0.33545700  0.97713700  0.88339800  1
  H  312  1  0.28354900  0.08460700  0.80886200  1
  H  313  1  0.21649700  0.08466600  0.94126900  1
  H  314  1  0.37057000  0.05476200  0.89131300  1
  H  315  1  0.12947800  0.05477800  0.85882100  1
  H  340  1  0.22437500  0.33751400  0.32966700  1
  H  341  1  0.24165100  0.32727500  0.35925100  1
  H  342  1  0.25831700  0.32729200  0.39091500  1
  H  343  1  0.27560600  0.33755800  0.42049400  1
  H  344  1  0.27067600  0.43747800  0.41096900  1
  H  345  1  0.22941700  0.43744400  0.33914300  1
  H  346  1  0.31676300  0.42322200  0.36785900  1
  H  347  1  0.33540700  0.52290100  0.36663900  1
  H  348  1  0.27987500  0.53358100  0.37218200  1
  H  349  1  0.18332000  0.42318700  0.38227400  1
  H  350  1  0.22018200  0.53356900  0.37803800  1
  H  351  1  0.16465500  0.52285600  0.38358300  1
  H  357  1  0.21633400  0.41536000  0.30889200  1
  H  358  1  0.28372600  0.41542200  0.44123600  1
  H  359  1  0.12955800  0.44529900  0.39155100  1
  H  360  1  0.37052500  0.44530900  0.35865900  1
  H  367  1  0.03481900  0.97401300  0.11367200  1
  H  368  1  0.02843600  0.91729400  0.11427900  1
  H  375  1  0.01034500  0.02249400  0.15598800  1
  H  376  1  0.02071500  0.07889700  0.15552600  1
  H  377  1  0.00167500  0.08100100  0.10078800  1
  H  378  1  0.94518100  0.92713500  0.14496600  1
  H  379  1  0.99119100  0.02458500  0.10122700  1
  H  381  1  0.92624200  0.97898800  0.15228200  1
  H  382  1  0.94460700  0.01213200  0.14596400  1
  H  391  1  0.46526700  0.52607300  0.61361900  1
  H  392  1  0.47164600  0.58279100  0.61423600  1
  H  399  1  0.48974000  0.47759700  0.65593400  1
  H  400  1  0.47936200  0.42119600  0.65547700  1
  H  401  1  0.49839900  0.41907200  0.60073800  1
  H  402  1  0.55490200  0.57293700  0.64492300  1
  H  403  1  0.50889000  0.47549000  0.60117200  1
  H  405  1  0.57384300  0.52108100  0.65222900  1
  H  406  1  0.55548100  0.48793900  0.64590500  1
  H  415  1  0.02625600  0.53482900  0.36366900  1
  H  416  1  0.08295700  0.52833600  0.36431100  1
  H  423  1  0.97772700  0.51040600  0.40598100  1
  H  424  1  0.92137300  0.52101200  0.40552100  1
  H  425  1  0.91921300  0.50214900  0.35076300  1
  H  426  1  0.07289400  0.44508200  0.39498000  1
  H  427  1  0.97558400  0.49142400  0.35120100  1
  H  429  1  0.02098300  0.42623600  0.40225800  1
  H  430  1  0.98789000  0.44466800  0.39591800  1
  H  439  1  0.47405200  0.96526300  0.86364700  1
  H  440  1  0.41733400  0.97165000  0.86424800  1
  H  447  1  0.52250700  0.98975800  0.90596800  1
  H  448  1  0.57890700  0.97938700  0.90552200  1
  H  449  1  0.58105700  0.99839600  0.85078000  1
  H  450  1  0.42716700  0.05492400  0.89492000  1
  H  451  1  0.52464000  0.00888200  0.85120400  1
  H  453  1  0.47901800  0.07386400  0.90223700  1
  H  454  1  0.51216400  0.05549500  0.89592800  1
  H  463  1  0.46518100  0.97408700  0.63642900  1
  H  464  1  0.47162900  0.91737600  0.63585900  1
  H  471  1  0.48995100  0.02240900  0.59406500  1
  H  472  1  0.47935000  0.07876200  0.59440500  1
  H  473  1  0.49767700  0.08121000  0.64921200  1
  H  474  1  0.55503100  0.92725900  0.60529800  1
  H  475  1  0.50839900  0.02483500  0.64889500  1
  H  477  1  0.57396500  0.97911900  0.59800000  1
  H  478  1  0.55554300  0.01225500  0.60428000  1
  H  487  1  0.03493700  0.52601100  0.13642200  1
  H  488  1  0.02850400  0.58272200  0.13583900  1
  H  495  1  0.01017000  0.47767100  0.09406200  1
  H  496  1  0.02075100  0.42131600  0.09441000  1
  H  497  1  0.00240600  0.41889800  0.14921700  1
  H  498  1  0.94511200  0.57284100  0.10527100  1
  H  499  1  0.99170300  0.47527700  0.14889100  1
  H  501  1  0.92616800  0.52098100  0.09798000  1
  H  502  1  0.94457800  0.48784600  0.10426900  1
  H  511  1  0.47387700  0.53475500  0.38653200  1
  H  512  1  0.41716400  0.52833100  0.38587400  1
  H  519  1  0.52247800  0.51061900  0.34424900  1
  H  520  1  0.57888500  0.52097600  0.34479000  1
  H  521  1  0.58083000  0.50139800  0.39947400  1
  H  522  1  0.42715000  0.44520600  0.35508800  1
  H  523  1  0.52441300  0.49093100  0.39895600  1
  H  525  1  0.47904100  0.42634900  0.34778000  1
  H  526  1  0.51215200  0.44472500  0.35414100  1
  H  535  1  0.02602200  0.96517000  0.88642800  1
  H  536  1  0.08273200  0.97161100  0.88585400  1
  H  543  1  0.97768900  0.98993300  0.84406400  1
  H  544  1  0.92133400  0.97933900  0.84441100  1
  H  545  1  0.91890900  0.99768500  0.89921700  1
  H  546  1  0.07285500  0.05500300  0.85528300  1
  H  547  1  0.97528500  0.00840100  0.89889300  1
  H  549  1  0.02099500  0.07393900  0.84798400  1
  H  550  1  0.98785900  0.05552400  0.85426800  1
  H  559  1  0.18241600  0.35910100  0.22963100  1
  H  560  1  0.16992900  0.33721100  0.20147300  1
  H  567  1  0.14660500  0.30818800  0.26989400  1
  H  568  1  0.17129000  0.32039600  0.29752400  1
  H  569  1  0.18542100  0.41581000  0.28100600  1
  H  570  1  0.08086200  0.30564800  0.22051600  1
  H  571  1  0.16008200  0.40375000  0.25332300  1
  H  573  1  0.06550400  0.31801800  0.24997100  1
  H  574  1  0.08863400  0.33849300  0.26364500  1
  H  583  1  0.31758100  0.14089200  0.72961600  1
  H  584  1  0.33009500  0.16279800  0.70146600  1
  H  591  1  0.35336500  0.19177800  0.76990000  1
  H  592  1  0.32864300  0.17956000  0.79751800  1
  H  593  1  0.31449500  0.08416200  0.78097700  1
  H  594  1  0.41914700  0.19434500  0.72054000  1
  H  595  1  0.33987300  0.09622900  0.75330700  1
  H  597  1  0.43447600  0.18195400  0.74999700  1
  H  598  1  0.41133000  0.16147400  0.76366100  1
  H  607  1  0.64106700  0.68258200  0.47964600  1
  H  608  1  0.66302200  0.67013000  0.45149800  1
  H  615  1  0.69191800  0.64675500  0.51993800  1
  H  616  1  0.67964300  0.67143200  0.54756000  1
  H  617  1  0.58426700  0.68556500  0.53097700  1
  H  618  1  0.69461600  0.58107400  0.47054200  1
  H  619  1  0.59639100  0.66023300  0.50330100  1
  H  621  1  0.68219000  0.56568500  0.49998500  1
  H  622  1  0.66166600  0.58878800  0.51365000  1
  H  631  1  0.85921500  0.81762000  0.97961100  1
  H  632  1  0.83729800  0.83013000  0.95146200  1
  H  639  1  0.80832300  0.85339600  0.01989600  1
  H  640  1  0.82054800  0.82867800  0.04751300  1
  H  641  1  0.91594800  0.81454700  0.03097100  1
  H  642  1  0.80573300  0.91917200  0.97053700  1
  H  643  1  0.90387400  0.83992200  0.00330000  1
  H  645  1  0.81812700  0.93450600  0.99999200  1
  H  646  1  0.83861600  0.91136700  0.01365600  1
  H  655  1  0.31760900  0.35911100  0.52050500  1
  H  656  1  0.33008300  0.33719900  0.54865900  1
  H  663  1  0.35341800  0.30820900  0.48023200  1
  H  664  1  0.32873400  0.32043700  0.45260600  1
  H  665  1  0.31461200  0.41584300  0.46914100  1
  H  666  1  0.41914400  0.30561600  0.52961400  1
  H  667  1  0.33994900  0.40376500  0.49682200  1
  H  669  1  0.43451200  0.31800400  0.50016300  1
  H  670  1  0.41139200  0.33849500  0.48649200  1
  H  679  1  0.18249100  0.14095600  0.02049800  1
  H  680  1  0.17000500  0.16287100  0.04864900  1
  H  687  1  0.14667600  0.19183700  0.98021800  1
  H  688  1  0.17137800  0.17961000  0.95259700  1
  H  689  1  0.18553300  0.08421600  0.96914400  1
  H  690  1  0.08094200  0.19442700  0.02959600  1
  H  691  1  0.16017400  0.09629300  0.99681800  1
  H  693  1  0.06558500  0.18202900  0.00014400  1
  H  694  1  0.08871300  0.16153900  0.98647600  1
  H  703  1  0.85907400  0.68258500  0.27050700  1
  H  704  1  0.83711400  0.67009500  0.29864800  1
  H  711  1  0.80823700  0.64677400  0.23020400  1
  H  712  1  0.82049300  0.67148400  0.20258900  1
  H  713  1  0.91586200  0.68566300  0.21917300  1
  H  714  1  0.80556800  0.58104300  0.27957300  1
  H  715  1  0.90375900  0.66029500  0.24684200  1
  H  717  1  0.81801300  0.56568900  0.25012700  1
  H  718  1  0.83853000  0.58881900  0.23646900  1
  H  727  1  0.64098500  0.81765900  0.77049700  1
  H  728  1  0.66290500  0.83012300  0.79865100  1
  H  735  1  0.69189200  0.85344300  0.73022200  1
  H  736  1  0.67964500  0.82875900  0.70259900  1
  H  737  1  0.58423800  0.81468300  0.71914400  1
  H  738  1  0.69452000  0.91917200  0.77960800  1
  H  739  1  0.59633600  0.84002500  0.74682100  1
  H  741  1  0.68214200  0.93454500  0.75015700  1
  H  742  1  0.66163900  0.91143400  0.73648500  1
  H  769  1  0.54037800  0.63073800  0.07959200  1
  H  770  1  0.55077000  0.64794600  0.10922900  1
  H  771  1  0.55074200  0.66530600  0.14092000  1
  H  772  1  0.54030500  0.68251300  0.17055200  1
  H  773  1  0.44045600  0.67721000  0.16093100  1
  H  774  1  0.44051500  0.63621900  0.08913600  1
  H  775  1  0.45501100  0.72300000  0.11672600  1
  H  776  1  0.35544200  0.74185100  0.11485100  1
  H  777  1  0.34451100  0.68658200  0.12143900  1
  H  778  1  0.45482500  0.59038500  0.13328000  1
  H  779  1  0.34443000  0.62704200  0.12837300  1
  H  780  1  0.35520700  0.57170800  0.13486900  1
  H  786  1  0.46346500  0.62628600  0.05837200  1
  H  787  1  0.46335700  0.68709600  0.19171500  1
  H  788  1  0.43265000  0.53754200  0.14311800  1
  H  789  1  0.43309500  0.77569600  0.10676800  1
  H  814  1  0.72510200  0.68257100  0.57961400  1
  H  815  1  0.71470300  0.66536100  0.60925000  1
  H  816  1  0.71472200  0.64799600  0.64094100  1
  H  817  1  0.72515000  0.63074000  0.67056500  1
  H  818  1  0.82500100  0.63603500  0.66095000  1
  H  819  1  0.82496300  0.67709600  0.58916700  1
  H  820  1  0.81046100  0.59030700  0.61674100  1
  H  821  1  0.91003000  0.57148500  0.61481100  1
  H  822  1  0.92095800  0.62674900  0.62141500  1
  H  823  1  0.81064300  0.72292600  0.63328600  1
  H  824  1  0.92103500  0.68629000  0.62833000  1
  H  825  1  0.91026000  0.74163300  0.63480600  1
  H  831  1  0.80203700  0.68705300  0.55840700  1
  H  832  1  0.80211100  0.62608800  0.69172500  1
  H  833  1  0.83281300  0.77579600  0.64307400  1
  H  834  1  0.83238300  0.53762400  0.60675600  1
  H  859  1  0.15837300  0.06440580  0.32951500  1
  H  860  1  0.14122300  0.07484680  0.35915700  1
  H  861  1  0.12405700  0.07487280  0.39088500  1
  H  862  1  0.10697700  0.06447780  0.42054400  1
  H  863  1  0.11249500  0.96461500  0.41100500  1
  H  864  1  0.15321900  0.96455800  0.33916500  1
  H  865  1  0.06644210  0.97890200  0.36695900  1
  H  866  1  0.04776810  0.87927600  0.36549000  1
  H  867  1  0.10315900  0.86852200  0.37184000  1
  H  868  1  0.19916400  0.97912400  0.38326200  1
  H  869  1  0.16274100  0.86861700  0.37857800  1
  H  870  1  0.21806200  0.87955500  0.38502200  1
  H  876  1  0.16301100  0.98746700  0.30836100  1
  H  877  1  0.10262300  0.98757700  0.44177500  1
  H  878  1  0.25207700  0.95710500  0.39310100  1
  H  879  1  0.01352910  0.95655000  0.35713600  1
  H  904  1  0.10685900  0.24903500  0.82960800  1
  H  905  1  0.12403300  0.23864000  0.85925000  1
  H  906  1  0.14140000  0.23866100  0.89094000  1
  H  907  1  0.15865100  0.24909000  0.92056500  1
  H  908  1  0.15336500  0.34894100  0.91094600  1
  H  909  1  0.11236300  0.34889800  0.83915300  1
  H  910  1  0.19910200  0.33439100  0.86673900  1
  H  911  1  0.21795000  0.43395900  0.86484300  1
  H  912  1  0.16268600  0.44489200  0.87144400  1
  H  913  1  0.06648910  0.33458700  0.88330300  1
  H  914  1  0.10315400  0.44497800  0.87838900  1
  H  915  1  0.04781610  0.43420600  0.88488000  1
  H  921  1  0.10244200  0.32595000  0.80838900  1
  H  922  1  0.16330000  0.32605100  0.94172400  1
  H  923  1  0.01364610  0.35677000  0.89313500  1
  H  924  1  0.25179200  0.35630300  0.85676900  1
  H  949  1  0.04519710  0.13117500  0.57965100  1
  H  950  1  0.05544610  0.14839000  0.60924500  1
  H  951  1  0.05544410  0.16503500  0.64090400  1
  H  952  1  0.04519710  0.18229400  0.67048800  1
  H  953  1  0.94527200  0.17730300  0.66099300  1
  H  954  1  0.94527200  0.13614300  0.58914700  1
  H  955  1  0.95954900  0.22345100  0.61797600  1
  H  956  1  0.85988700  0.24216100  0.61676200  1
  H  957  1  0.84916900  0.18660500  0.62221400  1
  H  958  1  0.95950600  0.08993180  0.63217600  1
  H  959  1  0.84915000  0.12684600  0.62793900  1
  H  960  1  0.85983200  0.07128280  0.63339100  1
  H  966  1  0.96736100  0.12310500  0.55888000  1
  H  967  1  0.96734200  0.19039300  0.69125000  1
  H  968  1  0.93747700  0.03614880  0.64128900  1
  H  969  1  0.93753200  0.27725900  0.60885800  1
  H  994  1  0.22035100  0.18221300  0.07962900  1
  H  995  1  0.21009300  0.16500600  0.10922300  1
  H  996  1  0.21007800  0.14844700  0.14089800  1
  H  997  1  0.22031800  0.13130500  0.17050600  1
  H  998  1  0.32024500  0.13617700  0.16100300  1
  H  999  1  0.32027200  0.17715200  0.08912300  1
  H  1000  1  0.30600200  0.08986780  0.11794200  1
  H  1001  1  0.40566900  0.07117980  0.11672900  1
  H  1002  1  0.41637500  0.12674100  0.12217700  1
  H  1003  1  0.30600200  0.22336500  0.13219500  1
  H  1004  1  0.41637600  0.18649200  0.12795600  1
  H  1005  1  0.40567100  0.24204100  0.13344000  1
  H  1011  1  0.29821100  0.19022800  0.05886200  1
  H  1012  1  0.29813500  0.12324900  0.19128500  1
  H  1013  1  0.32806000  0.27713900  0.14137800  1
  H  1014  1  0.32804500  0.03607680  0.10879400  1
  H  1039  1  0.65819000  0.56907600  0.82962100  1
  H  1040  1  0.64100700  0.57933800  0.85921800  1
  H  1041  1  0.62438600  0.57935200  0.89088200  1
  H  1042  1  0.60720000  0.56911600  0.92048200  1
  H  1043  1  0.61222300  0.46918600  0.91100300  1
  H  1044  1  0.65322400  0.46915600  0.83913300  1
  H  1045  1  0.56596900  0.48343700  0.86796400  1
  H  1046  1  0.54727500  0.38376900  0.86674500  1
  H  1047  1  0.60283300  0.37305800  0.87219900  1
  H  1048  1  0.69948600  0.48342600  0.88215400  1
  H  1049  1  0.66259100  0.37305300  0.87796400  1
  H  1050  1  0.71815600  0.38375500  0.88339800  1
  H  1056  1  0.66624800  0.49122500  0.80886200  1
  H  1057  1  0.59919600  0.49128400  0.94126900  1
  H  1058  1  0.75326900  0.46138000  0.89131300  1
  H  1059  1  0.51217700  0.46139600  0.85882100  1
  H  1084  1  0.60707400  0.74413200  0.32966700  1
  H  1085  1  0.62435000  0.73389300  0.35925100  1
  H  1086  1  0.64101600  0.73391000  0.39091500  1
  H  1087  1  0.65830500  0.74417600  0.42049400  1
  H  1088  1  0.65337500  0.84409600  0.41096900  1
  H  1089  1  0.61211600  0.84406200  0.33914300  1
  H  1090  1  0.69946200  0.82984000  0.36785900  1
  H  1091  1  0.71810600  0.92951900  0.36663900  1
  H  1092  1  0.66257400  0.94019900  0.37218200  1
  H  1093  1  0.56601900  0.82980500  0.38227400  1
  H  1094  1  0.60288100  0.94018700  0.37803800  1
  H  1095  1  0.54735400  0.92947400  0.38358300  1
  H  1101  1  0.59903300  0.82197800  0.30889200  1
  H  1102  1  0.66642500  0.82204000  0.44123600  1
  H  1103  1  0.51225700  0.85191700  0.39155100  1
  H  1104  1  0.75322400  0.85192700  0.35865900  1
  H  1111  1  0.41751800  0.38063100  0.11367200  1
  H  1112  1  0.41113500  0.32391200  0.11427900  1
  H  1119  1  0.39304400  0.42911200  0.15598800  1
  H  1120  1  0.40341400  0.48551500  0.15552600  1
  H  1121  1  0.38437400  0.48761900  0.10078800  1
  H  1122  1  0.32788000  0.33375300  0.14496600  1
  H  1123  1  0.37389000  0.43120300  0.10122700  1
  H  1125  1  0.30894100  0.38560600  0.15228200  1
  H  1126  1  0.32730600  0.41875000  0.14596400  1
  H  1135  1  0.84796600  0.93269100  0.61361900  1
  H  1136  1  0.85434500  0.98940900  0.61423600  1
  H  1143  1  0.87243900  0.88421500  0.65593400  1
  H  1144  1  0.86206100  0.82781400  0.65547700  1
  H  1145  1  0.88109800  0.82569000  0.60073800  1
  H  1146  1  0.93760100  0.97955500  0.64492300  1
  H  1147  1  0.89158900  0.88210800  0.60117200  1
  H  1149  1  0.95654200  0.92769900  0.65222900  1
  H  1150  1  0.93818000  0.89455700  0.64590500  1
  H  1159  1  0.40895500  0.94144700  0.36366900  1
  H  1160  1  0.46565600  0.93495400  0.36431100  1
  H  1167  1  0.36042600  0.91702400  0.40598100  1
  H  1168  1  0.30407200  0.92763000  0.40552100  1
  H  1169  1  0.30191200  0.90876700  0.35076300  1
  H  1170  1  0.45559300  0.85170000  0.39498000  1
  H  1171  1  0.35828300  0.89804200  0.35120100  1
  H  1173  1  0.40368200  0.83285400  0.40225800  1
  H  1174  1  0.37058900  0.85128600  0.39591800  1
  H  1183  1  0.85675100  0.37188100  0.86364700  1
  H  1184  1  0.80003300  0.37826800  0.86424800  1
  H  1191  1  0.90520600  0.39637600  0.90596800  1
  H  1192  1  0.96160600  0.38600500  0.90552200  1
  H  1193  1  0.96375600  0.40501400  0.85078000  1
  H  1194  1  0.80986600  0.46154200  0.89492000  1
  H  1195  1  0.90733900  0.41550000  0.85120400  1
  H  1197  1  0.86171700  0.48048200  0.90223700  1
  H  1198  1  0.89486300  0.46211300  0.89592800  1
  H  1207  1  0.84788000  0.38070500  0.63642900  1
  H  1208  1  0.85432800  0.32399400  0.63585900  1
  H  1215  1  0.87265000  0.42902700  0.59406500  1
  H  1216  1  0.86204900  0.48538000  0.59440500  1
  H  1217  1  0.88037600  0.48782800  0.64921200  1
  H  1218  1  0.93773000  0.33387700  0.60529800  1
  H  1219  1  0.89109800  0.43145300  0.64889500  1
  H  1221  1  0.95666400  0.38573700  0.59800000  1
  H  1222  1  0.93824200  0.41887300  0.60428000  1
  H  1231  1  0.41763600  0.93262900  0.13642200  1
  H  1232  1  0.41120300  0.98934000  0.13583900  1
  H  1239  1  0.39286900  0.88428900  0.09406200  1
  H  1240  1  0.40345000  0.82793400  0.09441000  1
  H  1241  1  0.38510500  0.82551600  0.14921700  1
  H  1242  1  0.32781100  0.97945900  0.10527100  1
  H  1243  1  0.37440200  0.88189500  0.14889100  1
  H  1245  1  0.30886700  0.92759900  0.09798000  1
  H  1246  1  0.32727700  0.89446400  0.10426900  1
  H  1255  1  0.85657600  0.94137300  0.38653200  1
  H  1256  1  0.79986300  0.93494900  0.38587400  1
  H  1263  1  0.90517700  0.91723700  0.34424900  1
  H  1264  1  0.96158400  0.92759400  0.34479000  1
  H  1265  1  0.96352900  0.90801600  0.39947400  1
  H  1266  1  0.80984900  0.85182400  0.35508800  1
  H  1267  1  0.90711200  0.89754900  0.39895600  1
  H  1269  1  0.86174000  0.83296700  0.34778000  1
  H  1270  1  0.89485100  0.85134300  0.35414100  1
  H  1279  1  0.40872100  0.37178800  0.88642800  1
  H  1280  1  0.46543100  0.37822900  0.88585400  1
  H  1287  1  0.36038800  0.39655100  0.84406400  1
  H  1288  1  0.30403300  0.38595700  0.84441100  1
  H  1289  1  0.30160800  0.40430300  0.89921700  1
  H  1290  1  0.45555400  0.46162100  0.85528300  1
  H  1291  1  0.35798400  0.41501900  0.89889300  1
  H  1293  1  0.40369400  0.48055700  0.84798400  1
  H  1294  1  0.37055800  0.46214200  0.85426800  1
  H  1303  1  0.56511500  0.76571900  0.22963100  1
  H  1304  1  0.55262800  0.74382900  0.20147300  1
  H  1311  1  0.52930400  0.71480600  0.26989400  1
  H  1312  1  0.55398900  0.72701400  0.29752400  1
  H  1313  1  0.56812000  0.82242800  0.28100600  1
  H  1314  1  0.46356100  0.71226600  0.22051600  1
  H  1315  1  0.54278100  0.81036800  0.25332300  1
  H  1317  1  0.44820300  0.72463600  0.24997100  1
  H  1318  1  0.47133300  0.74511100  0.26364500  1
  H  1327  1  0.70028000  0.54751000  0.72961600  1
  H  1328  1  0.71279400  0.56941600  0.70146600  1
  H  1335  1  0.73606400  0.59839600  0.76990000  1
  H  1336  1  0.71134200  0.58617800  0.79751800  1
  H  1337  1  0.69719400  0.49078000  0.78097700  1
  H  1338  1  0.80184600  0.60096300  0.72054000  1
  H  1339  1  0.72257200  0.50284700  0.75330700  1
  H  1341  1  0.81717500  0.58857200  0.74999700  1
  H  1342  1  0.79402900  0.56809200  0.76366100  1
  H  1351  1  0.02376610  0.08919980  0.47964600  1
  H  1352  1  0.04572110  0.07674780  0.45149800  1
  H  1359  1  0.07461710  0.05337280  0.51993800  1
  H  1360  1  0.06234210  0.07804980  0.54756000  1
  H  1361  1  0.96696600  0.09218280  0.53097700  1
  H  1362  1  0.07731510  0.98769200  0.47054200  1
  H  1363  1  0.97909000  0.06685080  0.50330100  1
  H  1365  1  0.06488910  0.97230300  0.49998500  1
  H  1366  1  0.04436510  0.99540600  0.51365000  1
  H  1375  1  0.24191400  0.22423800  0.97961100  1
  H  1376  1  0.21999700  0.23674800  0.95146200  1
  H  1383  1  0.19102200  0.26001400  0.01989600  1
  H  1384  1  0.20324700  0.23529600  0.04751300  1
  H  1385  1  0.29864700  0.22116500  0.03097100  1
  H  1386  1  0.18843200  0.32579000  0.97053700  1
  H  1387  1  0.28657300  0.24654000  0.00330000  1
  H  1389  1  0.20082600  0.34112400  0.99999200  1
  H  1390  1  0.22131500  0.31798500  0.01365600  1
  H  1399  1  0.70030800  0.76572900  0.52050500  1
  H  1400  1  0.71278200  0.74381700  0.54865900  1
  H  1407  1  0.73611700  0.71482700  0.48023200  1
  H  1408  1  0.71143300  0.72705500  0.45260600  1
  H  1409  1  0.69731100  0.82246100  0.46914100  1
  H  1410  1  0.80184300  0.71223400  0.52961400  1
  H  1411  1  0.72264800  0.81038300  0.49682200  1
  H  1413  1  0.81721100  0.72462200  0.50016300  1
  H  1414  1  0.79409100  0.74511300  0.48649200  1
  H  1423  1  0.56519000  0.54757400  0.02049800  1
  H  1424  1  0.55270400  0.56948900  0.04864900  1
  H  1431  1  0.52937500  0.59845500  0.98021800  1
  H  1432  1  0.55407700  0.58622800  0.95259700  1
  H  1433  1  0.56823200  0.49083400  0.96914400  1
  H  1434  1  0.46364100  0.60104500  0.02959600  1
  H  1435  1  0.54287300  0.50291100  0.99681800  1
  H  1437  1  0.44828400  0.58864700  0.00014400  1
  H  1438  1  0.47141200  0.56815700  0.98647600  1
  H  1447  1  0.24177300  0.08920280  0.27050700  1
  H  1448  1  0.21981300  0.07671280  0.29864800  1
  H  1455  1  0.19093600  0.05339180  0.23020400  1
  H  1456  1  0.20319200  0.07810180  0.20258900  1
  H  1457  1  0.29856100  0.09228080  0.21917300  1
  H  1458  1  0.18826700  0.98766100  0.27957300  1
  H  1459  1  0.28645800  0.06691280  0.24684200  1
  H  1461  1  0.20071200  0.97230700  0.25012700  1
  H  1462  1  0.22122900  0.99543700  0.23646900  1
  H  1471  1  0.02368410  0.22427700  0.77049700  1
  H  1472  1  0.04560410  0.23674100  0.79865100  1
  H  1479  1  0.07459110  0.26006100  0.73022200  1
  H  1480  1  0.06234410  0.23537700  0.70259900  1
  H  1481  1  0.96693700  0.22130100  0.71914400  1
  H  1482  1  0.07721910  0.32579000  0.77960800  1
  H  1483  1  0.97903500  0.24664300  0.74682100  1
  H  1485  1  0.06484110  0.34116300  0.75015700  1
  H  1486  1  0.04433810  0.31805200  0.73648500  1
  C  1  1  0.04224000  0.22359100  0.12873100  1
  C  2  1  0.01055000  0.23399400  0.12713300  1
  C  3  1  0.01059500  0.26631600  0.12283300  1
  C  4  1  0.04231600  0.27665600  0.12130300  1
  C  5  1  0.04900600  0.30901800  0.11747700  1
  C  6  1  0.02354200  0.33112800  0.11532900  1
  C  7  1  0.99158100  0.31987400  0.11654600  1
  C  8  1  0.98495300  0.28758400  0.12032500  1
  C  9  1  0.98484800  0.21276200  0.12954700  1
  C  10  1  0.99138700  0.18043200  0.13327200  1
  C  11  1  0.02331800  0.16912300  0.13455400  1
  C  12  1  0.04884100  0.19119800  0.13252400  1
  C  13  1  0.08749400  0.24277000  0.11046100  1
  C  14  1  0.11914800  0.24552300  0.11625400  1
  C  15  1  0.11913100  0.25459100  0.13385600  1
  C  16  1  0.08746600  0.25737500  0.13962600  1
  C  17  1  0.14495000  0.26089800  0.14518200  1
  C  18  1  0.13853200  0.27111600  0.16249600  1
  C  19  1  0.10662800  0.27529700  0.16859100  1
  C  20  1  0.08101500  0.26772700  0.15701700  1
  C  21  1  0.08106800  0.23247100  0.09305900  1
  C  22  1  0.10669800  0.22482900  0.08151000  1
  C  23  1  0.13859300  0.22895300  0.08763000  1
  C  24  1  0.14498500  0.23917700  0.10494700  1
  C  37  1  0.06487700  0.25009900  0.12503300  1
  C  38  1  0.10056800  0.28682800  0.18546600  1
  C  39  1  0.10065600  0.21329600  0.06463400  1
  C  40  1  0.02897800  0.13704200  0.13790600  1
  C  41  1  0.02926400  0.36316700  0.11182400  1
  C  46  1  0.45783000  0.27647200  0.62877500  1
  C  47  1  0.48952000  0.26607900  0.62715600  1
  C  48  1  0.48947500  0.23375800  0.62285300  1
  C  49  1  0.45775400  0.22341600  0.62132500  1
  C  50  1  0.45106600  0.19105800  0.61749000  1
  C  51  1  0.47653200  0.16895700  0.61532000  1
  C  52  1  0.50849300  0.18021600  0.61652700  1
  C  53  1  0.51511800  0.21250100  0.62032300  1
  C  54  1  0.51522100  0.28732600  0.62953100  1
  C  55  1  0.50868200  0.31965900  0.63324100  1
  C  56  1  0.47675000  0.33096600  0.63453100  1
  C  57  1  0.45123100  0.30888400  0.63252400  1
  C  58  1  0.41258100  0.25731500  0.61049100  1
  C  59  1  0.38092500  0.25457400  0.61628300  1
  C  60  1  0.38093700  0.24548500  0.63388300  1
  C  61  1  0.41260000  0.24268400  0.63965300  1
  C  62  1  0.35511400  0.23917800  0.64520500  1
  C  63  1  0.36152900  0.22892800  0.66251500  1
  C  64  1  0.39342900  0.22472600  0.66861000  1
  C  65  1  0.41904600  0.23232100  0.65704300  1
  C  66  1  0.41901000  0.26761700  0.59308900  1
  C  67  1  0.39338400  0.27525900  0.58153800  1
  C  68  1  0.36148800  0.27113500  0.58765700  1
  C  69  1  0.35509200  0.26092900  0.60497600  1
  C  82  1  0.43519400  0.24997000  0.62506300  1
  C  83  1  0.39948300  0.21316700  0.68548000  1
  C  84  1  0.39942800  0.28678100  0.56465900  1
  C  85  1  0.47108600  0.36305200  0.63786500  1
  C  86  1  0.47081600  0.13691900  0.61181100  1
  C  91  1  0.77670000  0.54250500  0.37878600  1
  C  92  1  0.76636700  0.51078200  0.37725400  1
  C  93  1  0.73403600  0.51072700  0.37298600  1
  C  94  1  0.72361700  0.54241400  0.37140300  1
  C  95  1  0.69119800  0.54900400  0.36767600  1
  C  96  1  0.66912100  0.52346800  0.36572200  1
  C  97  1  0.68043200  0.49154100  0.36700700  1
  C  98  1  0.71279200  0.48501400  0.37064900  1
  C  99  1  0.78766000  0.48514100  0.37969700  1
  C  100  1  0.81997600  0.49177300  0.38339900  1
  C  101  1  0.83121100  0.52373800  0.38461700  1
  C  102  1  0.80908100  0.54920200  0.38255100  1
  C  103  1  0.75738300  0.58765200  0.36048300  1
  C  104  1  0.75453200  0.61931500  0.36624100  1
  C  105  1  0.74552200  0.61933200  0.38385300  1
  C  106  1  0.74281000  0.58767800  0.38965000  1
  C  107  1  0.73919800  0.64516900  0.39516400  1
  C  108  1  0.72906900  0.63877500  0.41249700  1
  C  109  1  0.72499300  0.60688000  0.41862500  1
  C  110  1  0.73258500  0.58125100  0.40706600  1
  C  111  1  0.76761600  0.58119800  0.34307100  1
  C  112  1  0.77513800  0.60681300  0.33148900  1
  C  113  1  0.77093800  0.63871600  0.33758000  1
  C  114  1  0.76077300  0.64513500  0.35490400  1
  C  127  1  0.75012900  0.56506000  0.37507700  1
  C  128  1  0.71351900  0.60084000  0.43551500  1
  C  129  1  0.78665800  0.60075900  0.31461200  1
  C  130  1  0.86328400  0.52947900  0.38792800  1
  C  131  1  0.63698600  0.52912200  0.36255000  1
  C  136  1  0.72361700  0.95785100  0.87875900  1
  C  137  1  0.73402400  0.98954100  0.87715900  1
  C  138  1  0.76634600  0.98949300  0.87285900  1
  C  139  1  0.77668100  0.95777000  0.87132600  1
  C  140  1  0.80903800  0.95108000  0.86749000  1
  C  141  1  0.83114600  0.97654100  0.86533200  1
  C  142  1  0.81989300  0.00850400  0.86654300  1
  C  143  1  0.78760700  0.01513300  0.87033400  1
  C  144  1  0.71279200  0.01524400  0.87956600  1
  C  145  1  0.68046100  0.00870800  0.88328700  1
  C  146  1  0.66915000  0.97677800  0.88457400  1
  C  147  1  0.69122400  0.95125400  0.88254800  1
  C  148  1  0.74278600  0.91259700  0.86048600  1
  C  149  1  0.74551700  0.88094300  0.86627900  1
  C  150  1  0.75458700  0.88095500  0.88388200  1
  C  151  1  0.75739800  0.91262100  0.88965100  1
  C  152  1  0.76091600  0.85513400  0.89520200  1
  C  153  1  0.77116100  0.86154700  0.91251200  1
  C  154  1  0.77535100  0.89345000  0.91860800  1
  C  155  1  0.76775900  0.91906700  0.90704100  1
  C  156  1  0.73247700  0.91902400  0.84308600  1
  C  157  1  0.72486800  0.89340000  0.83152900  1
  C  158  1  0.72899200  0.86150200  0.83764700  1
  C  159  1  0.73918600  0.85510800  0.85496800  1
  C  172  1  0.75012200  0.93521200  0.87505900  1
  C  173  1  0.78690600  0.89950400  0.93548000  1
  C  174  1  0.71335600  0.89944400  0.81464800  1
  C  175  1  0.63706800  0.97112100  0.88791900  1
  C  176  1  0.86318500  0.97082000  0.86182300  1
  C  181  1  0.54694200  0.72341200  0.62853200  1
  C  182  1  0.51526400  0.73385900  0.62702900  1
  C  183  1  0.51527600  0.76632900  0.62312900  1
  C  184  1  0.54696100  0.77675500  0.62162100  1
  C  185  1  0.55354100  0.80939500  0.61848300  1
  C  186  1  0.52808200  0.83169200  0.61691400  1
  C  187  1  0.49614100  0.82020600  0.61798900  1
  C  188  1  0.48958700  0.78767900  0.62109000  1
  C  189  1  0.48956300  0.71252200  0.62905400  1
  C  190  1  0.49609600  0.67999200  0.63216200  1
  C  191  1  0.52802900  0.66849000  0.63324500  1
  C  192  1  0.55350300  0.69077200  0.63168000  1
  C  193  1  0.59215800  0.74309900  0.61043100  1
  C  194  1  0.62379700  0.74575200  0.61625000  1
  C  195  1  0.62379700  0.75439100  0.63390700  1
  C  196  1  0.59215500  0.75702900  0.63972700  1
  C  197  1  0.64967300  0.76053800  0.64520900  1
  C  198  1  0.64333700  0.77075400  0.66252400  1
  C  199  1  0.61147000  0.77520800  0.66864700  1
  C  200  1  0.58580700  0.76749400  0.65711800  1
  C  201  1  0.58581000  0.73264700  0.59303800  1
  C  202  1  0.61147200  0.72498600  0.58149900  1
  C  203  1  0.64333900  0.72942700  0.58762600  1
  C  204  1  0.64967300  0.73963300  0.60494200  1
  C  217  1  0.56955200  0.75007600  0.62507700  1
  C  218  1  0.60550700  0.78772400  0.68535300  1
  C  219  1  0.60551400  0.71250200  0.56478500  1
  C  220  1  0.53447100  0.63611600  0.63552000  1
  C  221  1  0.53454000  0.86406300  0.61464500  1
  C  226  1  0.95318400  0.77668100  0.12849000  1
  C  227  1  0.98486700  0.76623800  0.12700200  1
  C  228  1  0.98486700  0.73376900  0.12309600  1
  C  229  1  0.95318400  0.72332100  0.12163000  1
  C  230  1  0.94660900  0.69070100  0.11842900  1
  C  231  1  0.97207500  0.66840600  0.11687200  1
  C  232  1  0.00401300  0.67989400  0.11796200  1
  C  233  1  0.01056000  0.71242600  0.12106000  1
  C  234  1  0.01056100  0.78757100  0.12907100  1
  C  235  1  0.00401500  0.82009600  0.13218500  1
  C  236  1  0.97207500  0.83158400  0.13327500  1
  C  237  1  0.94660900  0.80929900  0.13169000  1
  C  238  1  0.90798300  0.75695300  0.11040100  1
  C  239  1  0.87633800  0.75432200  0.11621900  1
  C  240  1  0.87632900  0.74573500  0.13388300  1
  C  241  1  0.90796800  0.74304200  0.13970000  1
  C  242  1  0.85045100  0.73967600  0.14519900  1
  C  243  1  0.85678000  0.72951300  0.16252500  1
  C  244  1  0.88864500  0.72507200  0.16865400  1
  C  245  1  0.91431200  0.73268000  0.15710800  1
  C  246  1  0.91433800  0.76736500  0.09300100  1
  C  247  1  0.88868000  0.77508300  0.08146900  1
  C  248  1  0.85680900  0.77067500  0.08759700  1
  C  249  1  0.85046800  0.76046700  0.10491200  1
  C  262  1  0.93058100  0.75000200  0.12505400  1
  C  263  1  0.89459300  0.71262200  0.18537600  1
  C  264  1  0.89465100  0.78758100  0.06475900  1
  C  265  1  0.96562700  0.86395300  0.13556200  1
  C  266  1  0.96562200  0.63603700  0.11459700  1
  C  271  1  0.27670800  0.04692800  0.87849200  1
  C  272  1  0.26625600  0.01524600  0.87702600  1
  C  273  1  0.23377900  0.01525000  0.87313900  1
  C  274  1  0.22333800  0.04693300  0.87165600  1
  C  275  1  0.19071000  0.05351100  0.86848200  1
  C  276  1  0.16842000  0.02804700  0.86690600  1
  C  277  1  0.17990700  0.99610700  0.86798800  1
  C  278  1  0.21243400  0.98955800  0.87109600  1
  C  279  1  0.28759600  0.98955300  0.87906200  1
  C  280  1  0.32012800  0.99609500  0.88216100  1
  C  281  1  0.33162100  0.02803300  0.88323900  1
  C  282  1  0.30933300  0.05350100  0.88167600  1
  C  283  1  0.25695100  0.09213100  0.86041200  1
  C  284  1  0.25430800  0.12377500  0.86622800  1
  C  285  1  0.24572600  0.12378400  0.88389200  1
  C  286  1  0.24311500  0.09214500  0.88972200  1
  C  287  1  0.23960600  0.14966300  0.89519800  1
  C  288  1  0.22941500  0.14333500  0.91251800  1
  C  289  1  0.22498800  0.11147100  0.91865000  1
  C  290  1  0.23268000  0.08580400  0.90712000  1
  C  291  1  0.26734200  0.08577400  0.84300900  1
  C  292  1  0.27503200  0.11143300  0.83147100  1
  C  293  1  0.27060000  0.14330200  0.83759400  1
  C  294  1  0.26037900  0.14964500  0.85490800  1
  C  307  1  0.25002700  0.06953400  0.87507000  1
  C  308  1  0.21249600  0.10551200  0.93536100  1
  C  309  1  0.28752700  0.10546500  0.81476200  1
  C  310  1  0.36399200  0.03448400  0.88551000  1
  C  311  1  0.13605100  0.03449900  0.86462300  1
  C  316  1  0.22337700  0.45307100  0.37853700  1
  C  317  1  0.23381100  0.48475800  0.37706000  1
  C  318  1  0.26624900  0.48476500  0.37308800  1
  C  319  1  0.27668400  0.45308700  0.37156300  1
  C  320  1  0.30930700  0.44652600  0.36836100  1
  C  321  1  0.33157500  0.47200200  0.36677500  1
  C  322  1  0.32008500  0.50393600  0.36788000  1
  C  323  1  0.28757200  0.51047100  0.37103400  1
  C  324  1  0.21249100  0.51045200  0.37915800  1
  C  325  1  0.17998000  0.50390000  0.38230900  1
  C  326  1  0.16849900  0.47195900  0.38339500  1
  C  327  1  0.19077100  0.44649300  0.38177600  1
  C  328  1  0.24301400  0.40786200  0.36042200  1
  C  329  1  0.24567100  0.37622500  0.36624500  1
  C  330  1  0.25436600  0.37623400  0.38389400  1
  C  331  1  0.25708500  0.40787900  0.38969600  1
  C  332  1  0.26048900  0.35036800  0.39520800  1
  C  333  1  0.27073600  0.35671400  0.41251600  1
  C  334  1  0.27518700  0.38858300  0.41863300  1
  C  335  1  0.26749500  0.41424100  0.40709500  1
  C  336  1  0.23253000  0.41420700  0.34303600  1
  C  337  1  0.22483800  0.38854300  0.33150500  1
  C  338  1  0.22927000  0.35667600  0.33763600  1
  C  339  1  0.23950800  0.35034700  0.35494700  1
  C  352  1  0.25003900  0.43047700  0.37505700  1
  C  353  1  0.28768500  0.39455600  0.43534300  1
  C  354  1  0.21235300  0.39450300  0.31479100  1
  C  355  1  0.13613900  0.46551500  0.38568500  1
  C  356  1  0.36394000  0.46557000  0.36447700  1
  C  361  1  0.98610800  0.91711000  0.12966400  1
  C  362  1  0.96392400  0.93722600  0.13832000  1
  C  363  1  0.96706200  0.97101100  0.13807700  1
  C  364  1  0.99350900  0.98483800  0.12894600  1
  C  365  1  0.01548200  0.96462900  0.12017100  1
  C  366  1  0.01183500  0.93125800  0.12056600  1
  C  369  1  0.99959400  0.01829800  0.12867100  1
  C  370  1  0.00850700  0.03458600  0.14427400  1
  C  371  1  0.01484900  0.06765000  0.14397800  1
  C  372  1  0.01260400  0.08517000  0.12803800  1
  C  373  1  0.00378300  0.06884700  0.11247100  1
  C  374  1  0.99763300  0.03575100  0.11272300  1
  C  385  1  0.51397500  0.58296800  0.62961900  1
  C  386  1  0.53616200  0.56284800  0.63827000  1
  C  387  1  0.53302600  0.52906300  0.63802300  1
  C  388  1  0.50657900  0.51524000  0.62888900  1
  C  389  1  0.48460500  0.53545400  0.62011700  1
  C  390  1  0.48825000  0.56882500  0.62051800  1
  C  393  1  0.50048900  0.48178300  0.62861600  1
  C  394  1  0.49157500  0.46550100  0.64422000  1
  C  395  1  0.48522900  0.43243800  0.64392700  1
  C  396  1  0.48747000  0.41491300  0.62798800  1
  C  397  1  0.49629400  0.43123000  0.61242100  1
  C  398  1  0.50244800  0.46432700  0.61266900  1
  C  409  1  0.08302100  0.48600200  0.37969300  1
  C  410  1  0.06285000  0.46384600  0.38832900  1
  C  411  1  0.02907200  0.46704600  0.38806400  1
  C  412  1  0.01532100  0.49352900  0.37892800  1
  C  413  1  0.03558600  0.51546700  0.37016700  1
  C  414  1  0.06894700  0.51175500  0.37058300  1
  C  417  1  0.98188400  0.49971000  0.37865500  1
  C  418  1  0.96563200  0.50864600  0.39426500  1
  C  419  1  0.93259800  0.51512800  0.39397000  1
  C  420  1  0.91508200  0.51300800  0.37802400  1
  C  421  1  0.93137100  0.50416600  0.36245000  1
  C  422  1  0.96443800  0.49787000  0.36270200  1
  C  433  1  0.41714500  0.01398700  0.87962400  1
  C  434  1  0.43726000  0.03617700  0.88827600  1
  C  435  1  0.47104500  0.03303700  0.88803900  1
  C  436  1  0.48487300  0.00658200  0.87891400  1
  C  437  1  0.46466600  0.98460600  0.87014100  1
  C  438  1  0.43129500  0.98825400  0.87053200  1
  C  441  1  0.51833300  0.00049400  0.87864800  1
  C  442  1  0.53460700  0.99158800  0.89425600  1
  C  443  1  0.56767000  0.98524700  0.89396900  1
  C  444  1  0.58520200  0.98748400  0.87803400  1
  C  445  1  0.56889400  0.99629500  0.86246100  1
  C  446  1  0.53579600  0.00244600  0.86270400  1
  C  457  1  0.51403700  0.91721300  0.62054100  1
  C  458  1  0.53625000  0.93734100  0.61191600  1
  C  459  1  0.53307900  0.97112300  0.61214100  1
  C  460  1  0.50656500  0.98493900  0.62122100  1
  C  461  1  0.48457400  0.96471800  0.62997300  1
  C  462  1  0.48825700  0.93134900  0.62960000  1
  C  465  1  0.50038900  0.01838500  0.62142800  1
  C  466  1  0.49160800  0.03456400  0.60576800  1
  C  467  1  0.48513100  0.06760300  0.60599200  1
  C  468  1  0.48710000  0.08521300  0.62191300  1
  C  469  1  0.49578000  0.06899500  0.63753800  1
  C  470  1  0.50207300  0.03592200  0.63735800  1
  C  481  1  0.98610400  0.58288500  0.12051500  1
  C  482  1  0.96388800  0.56275700  0.11189200  1
  C  483  1  0.96705200  0.52897400  0.11212300  1
  C  484  1  0.99355700  0.51515900  0.12121000  1
  C  485  1  0.01555100  0.53538000  0.12996200  1
  C  486  1  0.01187600  0.56874900  0.12958000  1
  C  489  1  0.99972500  0.48171100  0.12142300  1
  C  490  1  0.00850600  0.46552300  0.10576600  1
  C  491  1  0.01497000  0.43248100  0.10599400  1
  C  492  1  0.01299100  0.41488000  0.12191900  1
  C  493  1  0.00431100  0.43110600  0.13754000  1
  C  494  1  0.99803200  0.46418300  0.13735600  1
  C  505  1  0.41706100  0.48606400  0.37043600  1
  C  506  1  0.43721200  0.46393000  0.36176600  1
  C  507  1  0.47099000  0.46709600  0.36203500  1
  C  508  1  0.48476500  0.49351900  0.37121100  1
  C  509  1  0.46452300  0.51544100  0.37999900  1
  C  510  1  0.43115900  0.51176700  0.37957600  1
  C  513  1  0.51821300  0.49961400  0.37153100  1
  C  514  1  0.53453800  0.50867700  0.35596800  1
  C  515  1  0.56760000  0.51501500  0.35631100  1
  C  516  1  0.58506600  0.51261100  0.37226000  1
  C  517  1  0.56870600  0.50363500  0.38778800  1
  C  518  1  0.53561200  0.49749200  0.38748900  1
  C  529  1  0.08289800  0.01401100  0.87052900  1
  C  530  1  0.06277200  0.03622300  0.86190400  1
  C  531  1  0.02898900  0.03305600  0.86212900  1
  C  532  1  0.01517200  0.00654900  0.87121500  1
  C  533  1  0.03539200  0.98455900  0.87996800  1
  C  534  1  0.06876000  0.98823700  0.87959200  1
  C  537  1  0.98172400  0.00038000  0.87142500  1
  C  538  1  0.96553800  0.99159500  0.85576700  1
  C  539  1  0.93249900  0.98512500  0.85599500  1
  C  540  1  0.91489500  0.98710100  0.87191900  1
  C  541  1  0.93111900  0.99578400  0.88754100  1
  C  542  1  0.96419400  0.00207000  0.88735700  1
  C  553  1  0.12415400  0.31958700  0.20851200  1
  C  554  1  0.10192100  0.31756400  0.22249900  1
  C  555  1  0.10859300  0.33082700  0.23933800  1
  C  556  1  0.13861000  0.34630500  0.24213000  1
  C  557  1  0.16029400  0.34905300  0.22786400  1
  C  558  1  0.15308900  0.33599600  0.21128100  1
  C  561  1  0.15004400  0.35507100  0.25916500  1
  C  562  1  0.15368600  0.33124100  0.27225700  1
  C  563  1  0.16837200  0.33836100  0.28846400  1
  C  564  1  0.18033300  0.36927400  0.29187100  1
  C  565  1  0.17664200  0.39330700  0.27892000  1
  C  566  1  0.16173500  0.38619600  0.26270200  1
  C  577  1  0.37586600  0.18041200  0.70852100  1
  C  578  1  0.39808600  0.18242600  0.72251400  1
  C  579  1  0.39139600  0.16915400  0.73934900  1
  C  580  1  0.36137600  0.15367600  0.74212900  1
  C  581  1  0.33970500  0.15093700  0.72785800  1
  C  582  1  0.34692600  0.16400600  0.71127900  1
  C  585  1  0.34992400  0.14490300  0.75916000  1
  C  586  1  0.34627400  0.16872400  0.77225700  1
  C  587  1  0.33156600  0.16159900  0.78845700  1
  C  588  1  0.31958700  0.13069000  0.79185400  1
  C  589  1  0.32328800  0.10666300  0.77890000  1
  C  590  1  0.33821800  0.11377700  0.76268800  1
  C  601  1  0.68067400  0.62436900  0.45854200  1
  C  602  1  0.68268300  0.60212700  0.47252300  1
  C  603  1  0.66937700  0.60877400  0.48935600  1
  C  604  1  0.65387000  0.63877800  0.49214400  1
  C  605  1  0.65113700  0.66047000  0.47788100  1
  C  606  1  0.66423400  0.65328700  0.46130500  1
  C  609  1  0.64505900  0.65019200  0.50917600  1
  C  610  1  0.66885800  0.65383200  0.52228500  1
  C  611  1  0.66169700  0.66851100  0.53848900  1
  C  612  1  0.63077900  0.68047300  0.54187600  1
  C  613  1  0.60677500  0.67678200  0.52890700  1
  C  614  1  0.61392100  0.66188100  0.51269300  1
  C  625  1  0.81967500  0.87589600  0.95851700  1
  C  626  1  0.81765900  0.89811600  0.97251000  1
  C  627  1  0.83093600  0.89143100  0.98934400  1
  C  628  1  0.84642300  0.86141300  0.99212500  1
  C  629  1  0.84916200  0.83974300  0.97785100  1
  C  630  1  0.83608800  0.84696100  0.96127400  1
  C  633  1  0.85519900  0.84996300  0.00915500  1
  C  634  1  0.83137800  0.84630800  0.02225100  1
  C  635  1  0.83850900  0.83160300  0.03845100  1
  C  636  1  0.86942100  0.81963200  0.04184800  1
  C  637  1  0.89344500  0.82333500  0.02889400  1
  C  638  1  0.88632700  0.83826200  0.01268200  1
  C  649  1  0.37585400  0.31956100  0.54161800  1
  C  650  1  0.39808900  0.31754200  0.52763300  1
  C  651  1  0.39142500  0.33081700  0.51079600  1
  C  652  1  0.36141200  0.34630700  0.50800600  1
  C  653  1  0.33972700  0.34905500  0.52227100  1
  C  654  1  0.34692400  0.33598100  0.53885200  1
  C  657  1  0.34998300  0.35508800  0.49097100  1
  C  658  1  0.34634000  0.33126700  0.47787300  1
  C  659  1  0.33165700  0.33839900  0.46166800  1
  C  660  1  0.31969700  0.36931200  0.45826600  1
  C  661  1  0.32339300  0.39333800  0.47122100  1
  C  662  1  0.33829700  0.38621800  0.48743800  1
  C  673  1  0.12423300  0.18049600  0.04160300  1
  C  674  1  0.10200100  0.18250800  0.02761700  1
  C  675  1  0.10867200  0.16922900  0.01078100  1
  C  676  1  0.13868800  0.15374500  0.00799400  1
  C  677  1  0.16037000  0.15100700  0.02226100  1
  C  678  1  0.15316600  0.16408100  0.03884100  1
  C  681  1  0.15012400  0.14496500  0.99096200  1
  C  682  1  0.15376400  0.16878300  0.97786300  1
  C  683  1  0.16846000  0.16165100  0.96166100  1
  C  684  1  0.18043400  0.13074200  0.95826400  1
  C  685  1  0.17674300  0.10671800  0.97122000  1
  C  686  1  0.16182500  0.11383700  0.98743500  1
  C  697  1  0.81949100  0.62432800  0.29159000  1
  C  698  1  0.81749600  0.60210100  0.27760100  1
  C  699  1  0.83080200  0.60877400  0.26077200  1
  C  700  1  0.84629600  0.63878700  0.25799500  1
  C  701  1  0.84901600  0.66046500  0.27226500  1
  C  702  1  0.83591600  0.65325800  0.28883800  1
  C  705  1  0.85509600  0.65023000  0.24096700  1
  C  706  1  0.83129500  0.65386800  0.22785800  1
  C  707  1  0.83844200  0.66857100  0.21166000  1
  C  708  1  0.86935200  0.68055400  0.20827600  1
  C  709  1  0.89336100  0.67686800  0.22124200  1
  C  710  1  0.88622400  0.66194300  0.23745200  1
  C  721  1  0.68056100  0.87588400  0.79161100  1
  C  722  1  0.68259000  0.89811900  0.77762700  1
  C  723  1  0.66931000  0.89146200  0.76078900  1
  C  724  1  0.65380600  0.86145900  0.75799900  1
  C  725  1  0.65105300  0.83977100  0.77226300  1
  C  726  1  0.66412900  0.84696400  0.78884500  1
  C  729  1  0.64501600  0.85003500  0.74096600  1
  C  730  1  0.66883200  0.84637800  0.72786600  1
  C  731  1  0.66168700  0.83169200  0.71166300  1
  C  732  1  0.63076700  0.81974700  0.70826500  1
  C  733  1  0.60674600  0.82345700  0.72122100  1
  C  734  1  0.61387800  0.83836300  0.73743700  1
  C  745  1  0.42493900  0.63020900  0.12873100  1
  C  746  1  0.39324900  0.64061200  0.12713300  1
  C  747  1  0.39329400  0.67293400  0.12283300  1
  C  748  1  0.42501500  0.68327400  0.12130300  1
  C  749  1  0.43170500  0.71563600  0.11747700  1
  C  750  1  0.40624100  0.73774600  0.11532900  1
  C  751  1  0.37428000  0.72649200  0.11654600  1
  C  752  1  0.36765200  0.69420200  0.12032500  1
  C  753  1  0.36754700  0.61938000  0.12954700  1
  C  754  1  0.37408600  0.58705000  0.13327200  1
  C  755  1  0.40601700  0.57574100  0.13455400  1
  C  756  1  0.43154000  0.59781600  0.13252400  1
  C  757  1  0.47019300  0.64938800  0.11046100  1
  C  758  1  0.50184700  0.65214100  0.11625400  1
  C  759  1  0.50183000  0.66120900  0.13385600  1
  C  760  1  0.47016500  0.66399300  0.13962600  1
  C  761  1  0.52764900  0.66751600  0.14518200  1
  C  762  1  0.52123100  0.67773400  0.16249600  1
  C  763  1  0.48932700  0.68191500  0.16859100  1
  C  764  1  0.46371400  0.67434500  0.15701700  1
  C  765  1  0.46376700  0.63908900  0.09305900  1
  C  766  1  0.48939700  0.63144700  0.08151000  1
  C  767  1  0.52129200  0.63557100  0.08763000  1
  C  768  1  0.52768400  0.64579500  0.10494700  1
  C  781  1  0.44757600  0.65671700  0.12503300  1
  C  782  1  0.48326700  0.69344600  0.18546600  1
  C  783  1  0.48335500  0.61991400  0.06463400  1
  C  784  1  0.41167700  0.54366000  0.13790600  1
  C  785  1  0.41196300  0.76978500  0.11182400  1
  C  790  1  0.84052900  0.68309000  0.62877500  1
  C  791  1  0.87221900  0.67269700  0.62715600  1
  C  792  1  0.87217400  0.64037600  0.62285300  1
  C  793  1  0.84045300  0.63003400  0.62132500  1
  C  794  1  0.83376500  0.59767600  0.61749000  1
  C  795  1  0.85923100  0.57557500  0.61532000  1
  C  796  1  0.89119200  0.58683400  0.61652700  1
  C  797  1  0.89781700  0.61911900  0.62032300  1
  C  798  1  0.89792000  0.69394400  0.62953100  1
  C  799  1  0.89138100  0.72627700  0.63324100  1
  C  800  1  0.85944900  0.73758400  0.63453100  1
  C  801  1  0.83393000  0.71550200  0.63252400  1
  C  802  1  0.79528000  0.66393300  0.61049100  1
  C  803  1  0.76362400  0.66119200  0.61628300  1
  C  804  1  0.76363600  0.65210300  0.63388300  1
  C  805  1  0.79529900  0.64930200  0.63965300  1
  C  806  1  0.73781300  0.64579600  0.64520500  1
  C  807  1  0.74422800  0.63554600  0.66251500  1
  C  808  1  0.77612800  0.63134400  0.66861000  1
  C  809  1  0.80174500  0.63893900  0.65704300  1
  C  810  1  0.80170900  0.67423500  0.59308900  1
  C  811  1  0.77608300  0.68187700  0.58153800  1
  C  812  1  0.74418700  0.67775300  0.58765700  1
  C  813  1  0.73779100  0.66754700  0.60497600  1
  C  826  1  0.81789300  0.65658800  0.62506300  1
  C  827  1  0.78218200  0.61978500  0.68548000  1
  C  828  1  0.78212700  0.69339900  0.56465900  1
  C  829  1  0.85378500  0.76967000  0.63786500  1
  C  830  1  0.85351500  0.54353700  0.61181100  1
  C  835  1  0.15939900  0.94912300  0.37878600  1
  C  836  1  0.14906600  0.91740000  0.37725400  1
  C  837  1  0.11673500  0.91734500  0.37298600  1
  C  838  1  0.10631600  0.94903200  0.37140300  1
  C  839  1  0.07389710  0.95562200  0.36767600  1
  C  840  1  0.05182010  0.93008600  0.36572200  1
  C  841  1  0.06313110  0.89815900  0.36700700  1
  C  842  1  0.09549110  0.89163200  0.37064900  1
  C  843  1  0.17035900  0.89175900  0.37969700  1
  C  844  1  0.20267500  0.89839100  0.38339900  1
  C  845  1  0.21391000  0.93035600  0.38461700  1
  C  846  1  0.19178000  0.95582000  0.38255100  1
  C  847  1  0.14008200  0.99427000  0.36048300  1
  C  848  1  0.13723100  0.02593280  0.36624100  1
  C  849  1  0.12822100  0.02594980  0.38385300  1
  C  850  1  0.12550900  0.99429600  0.38965000  1
  C  851  1  0.12189700  0.05178680  0.39516400  1
  C  852  1  0.11176800  0.04539280  0.41249700  1
  C  853  1  0.10769200  0.01349780  0.41862500  1
  C  854  1  0.11528400  0.98786900  0.40706600  1
  C  855  1  0.15031500  0.98781600  0.34307100  1
  C  856  1  0.15783700  0.01343080  0.33148900  1
  C  857  1  0.15363700  0.04533380  0.33758000  1
  C  858  1  0.14347200  0.05175280  0.35490400  1
  C  871  1  0.13282800  0.97167800  0.37507700  1
  C  872  1  0.09621810  0.00745782  0.43551500  1
  C  873  1  0.16935700  0.00737682  0.31461200  1
  C  874  1  0.24598300  0.93609700  0.38792800  1
  C  875  1  0.01968510  0.93574000  0.36255000  1
  C  880  1  0.10631600  0.36446900  0.87875900  1
  C  881  1  0.11672300  0.39615900  0.87715900  1
  C  882  1  0.14904500  0.39611100  0.87285900  1
  C  883  1  0.15938000  0.36438800  0.87132600  1
  C  884  1  0.19173700  0.35769800  0.86749000  1
  C  885  1  0.21384500  0.38315900  0.86533200  1
  C  886  1  0.20259200  0.41512200  0.86654300  1
  C  887  1  0.17030600  0.42175100  0.87033400  1
  C  888  1  0.09549110  0.42186200  0.87956600  1
  C  889  1  0.06316010  0.41532600  0.88328700  1
  C  890  1  0.05184910  0.38339600  0.88457400  1
  C  891  1  0.07392310  0.35787200  0.88254800  1
  C  892  1  0.12548500  0.31921500  0.86048600  1
  C  893  1  0.12821600  0.28756100  0.86627900  1
  C  894  1  0.13728600  0.28757300  0.88388200  1
  C  895  1  0.14009700  0.31923900  0.88965100  1
  C  896  1  0.14361500  0.26175200  0.89520200  1
  C  897  1  0.15386000  0.26816500  0.91251200  1
  C  898  1  0.15805000  0.30006800  0.91860800  1
  C  899  1  0.15045800  0.32568500  0.90704100  1
  C  900  1  0.11517600  0.32564200  0.84308600  1
  C  901  1  0.10756700  0.30001800  0.83152900  1
  C  902  1  0.11169100  0.26812000  0.83764700  1
  C  903  1  0.12188500  0.26172600  0.85496800  1
  C  916  1  0.13282100  0.34183000  0.87505900  1
  C  917  1  0.16960500  0.30612200  0.93548000  1
  C  918  1  0.09605510  0.30606200  0.81464800  1
  C  919  1  0.01976710  0.37773900  0.88791900  1
  C  920  1  0.24588400  0.37743800  0.86182300  1
  C  925  1  0.92964100  0.13003000  0.62853200  1
  C  926  1  0.89796300  0.14047700  0.62702900  1
  C  927  1  0.89797500  0.17294700  0.62312900  1
  C  928  1  0.92966000  0.18337300  0.62162100  1
  C  929  1  0.93624000  0.21601300  0.61848300  1
  C  930  1  0.91078100  0.23831000  0.61691400  1
  C  931  1  0.87884000  0.22682400  0.61798900  1
  C  932  1  0.87228600  0.19429700  0.62109000  1
  C  933  1  0.87226200  0.11914000  0.62905400  1
  C  934  1  0.87879500  0.08660980  0.63216200  1
  C  935  1  0.91072800  0.07510780  0.63324500  1
  C  936  1  0.93620200  0.09738980  0.63168000  1
  C  937  1  0.97485700  0.14971700  0.61043100  1
  C  938  1  0.00649613  0.15237000  0.61625000  1
  C  939  1  0.00649613  0.16100900  0.63390700  1
  C  940  1  0.97485400  0.16364700  0.63972700  1
  C  941  1  0.03237210  0.16715600  0.64520900  1
  C  942  1  0.02603610  0.17737200  0.66252400  1
  C  943  1  0.99416900  0.18182600  0.66864700  1
  C  944  1  0.96850600  0.17411200  0.65711800  1
  C  945  1  0.96850900  0.13926500  0.59303800  1
  C  946  1  0.99417100  0.13160400  0.58149900  1
  C  947  1  0.02603810  0.13604500  0.58762600  1
  C  948  1  0.03237210  0.14625100  0.60494200  1
  C  961  1  0.95225100  0.15669400  0.62507700  1
  C  962  1  0.98820600  0.19434200  0.68535300  1
  C  963  1  0.98821300  0.11912000  0.56478500  1
  C  964  1  0.91717000  0.04273380  0.63552000  1
  C  965  1  0.91723900  0.27068100  0.61464500  1
  C  970  1  0.33588300  0.18329900  0.12849000  1
  C  971  1  0.36756600  0.17285600  0.12700200  1
  C  972  1  0.36756600  0.14038700  0.12309600  1
  C  973  1  0.33588300  0.12993900  0.12163000  1
  C  974  1  0.32930800  0.09731880  0.11842900  1
  C  975  1  0.35477400  0.07502380  0.11687200  1
  C  976  1  0.38671200  0.08651180  0.11796200  1
  C  977  1  0.39325900  0.11904400  0.12106000  1
  C  978  1  0.39326000  0.19418900  0.12907100  1
  C  979  1  0.38671400  0.22671400  0.13218500  1
  C  980  1  0.35477400  0.23820200  0.13327500  1
  C  981  1  0.32930800  0.21591700  0.13169000  1
  C  982  1  0.29068200  0.16357100  0.11040100  1
  C  983  1  0.25903700  0.16094000  0.11621900  1
  C  984  1  0.25902800  0.15235300  0.13388300  1
  C  985  1  0.29066700  0.14966000  0.13970000  1
  C  986  1  0.23315000  0.14629400  0.14519900  1
  C  987  1  0.23947900  0.13613100  0.16252500  1
  C  988  1  0.27134400  0.13169000  0.16865400  1
  C  989  1  0.29701100  0.13929800  0.15710800  1
  C  990  1  0.29703700  0.17398300  0.09300100  1
  C  991  1  0.27137900  0.18170100  0.08146900  1
  C  992  1  0.23950800  0.17729300  0.08759700  1
  C  993  1  0.23316700  0.16708500  0.10491200  1
  C  1006  1  0.31328000  0.15662000  0.12505400  1
  C  1007  1  0.27729200  0.11924000  0.18537600  1
  C  1008  1  0.27735000  0.19419900  0.06475900  1
  C  1009  1  0.34832600  0.27057100  0.13556200  1
  C  1010  1  0.34832100  0.04265480  0.11459700  1
  C  1015  1  0.65940700  0.45354600  0.87849200  1
  C  1016  1  0.64895500  0.42186400  0.87702600  1
  C  1017  1  0.61647800  0.42186800  0.87313900  1
  C  1018  1  0.60603700  0.45355100  0.87165600  1
  C  1019  1  0.57340900  0.46012900  0.86848200  1
  C  1020  1  0.55111900  0.43466500  0.86690600  1
  C  1021  1  0.56260600  0.40272500  0.86798800  1
  C  1022  1  0.59513300  0.39617600  0.87109600  1
  C  1023  1  0.67029500  0.39617100  0.87906200  1
  C  1024  1  0.70282700  0.40271300  0.88216100  1
  C  1025  1  0.71432000  0.43465100  0.88323900  1
  C  1026  1  0.69203200  0.46011900  0.88167600  1
  C  1027  1  0.63965000  0.49874900  0.86041200  1
  C  1028  1  0.63700700  0.53039300  0.86622800  1
  C  1029  1  0.62842500  0.53040200  0.88389200  1
  C  1030  1  0.62581400  0.49876300  0.88972200  1
  C  1031  1  0.62230500  0.55628100  0.89519800  1
  C  1032  1  0.61211400  0.54995300  0.91251800  1
  C  1033  1  0.60768700  0.51808900  0.91865000  1
  C  1034  1  0.61537900  0.49242200  0.90712000  1
  C  1035  1  0.65004100  0.49239200  0.84300900  1
  C  1036  1  0.65773100  0.51805100  0.83147100  1
  C  1037  1  0.65329900  0.54992000  0.83759400  1
  C  1038  1  0.64307800  0.55626300  0.85490800  1
  C  1051  1  0.63272600  0.47615200  0.87507000  1
  C  1052  1  0.59519500  0.51213000  0.93536100  1
  C  1053  1  0.67022600  0.51208300  0.81476200  1
  C  1054  1  0.74669100  0.44110200  0.88551000  1
  C  1055  1  0.51875000  0.44111700  0.86462300  1
  C  1060  1  0.60607600  0.85968900  0.37853700  1
  C  1061  1  0.61651000  0.89137600  0.37706000  1
  C  1062  1  0.64894800  0.89138300  0.37308800  1
  C  1063  1  0.65938300  0.85970500  0.37156300  1
  C  1064  1  0.69200600  0.85314400  0.36836100  1
  C  1065  1  0.71427400  0.87862000  0.36677500  1
  C  1066  1  0.70278400  0.91055400  0.36788000  1
  C  1067  1  0.67027100  0.91708900  0.37103400  1
  C  1068  1  0.59519000  0.91707000  0.37915800  1
  C  1069  1  0.56267900  0.91051800  0.38230900  1
  C  1070  1  0.55119800  0.87857700  0.38339500  1
  C  1071  1  0.57347000  0.85311100  0.38177600  1
  C  1072  1  0.62571300  0.81448000  0.36042200  1
  C  1073  1  0.62837000  0.78284300  0.36624500  1
  C  1074  1  0.63706500  0.78285200  0.38389400  1
  C  1075  1  0.63978400  0.81449700  0.38969600  1
  C  1076  1  0.64318800  0.75698600  0.39520800  1
  C  1077  1  0.65343500  0.76333200  0.41251600  1
  C  1078  1  0.65788600  0.79520100  0.41863300  1
  C  1079  1  0.65019400  0.82085900  0.40709500  1
  C  1080  1  0.61522900  0.82082500  0.34303600  1
  C  1081  1  0.60753700  0.79516100  0.33150500  1
  C  1082  1  0.61196900  0.76329400  0.33763600  1
  C  1083  1  0.62220700  0.75696500  0.35494700  1
  C  1096  1  0.63273800  0.83709500  0.37505700  1
  C  1097  1  0.67038400  0.80117400  0.43534300  1
  C  1098  1  0.59505200  0.80112100  0.31479100  1
  C  1099  1  0.51883800  0.87213300  0.38568500  1
  C  1100  1  0.74663900  0.87218800  0.36447700  1
  C  1105  1  0.36880700  0.32372800  0.12966400  1
  C  1106  1  0.34662300  0.34384400  0.13832000  1
  C  1107  1  0.34976100  0.37762900  0.13807700  1
  C  1108  1  0.37620800  0.39145600  0.12894600  1
  C  1109  1  0.39818100  0.37124700  0.12017100  1
  C  1110  1  0.39453400  0.33787600  0.12056600  1
  C  1113  1  0.38229300  0.42491600  0.12867100  1
  C  1114  1  0.39120600  0.44120400  0.14427400  1
  C  1115  1  0.39754800  0.47426800  0.14397800  1
  C  1116  1  0.39530300  0.49178800  0.12803800  1
  C  1117  1  0.38648200  0.47546500  0.11247100  1
  C  1118  1  0.38033200  0.44236900  0.11272300  1
  C  1129  1  0.89667400  0.98958600  0.62961900  1
  C  1130  1  0.91886100  0.96946600  0.63827000  1
  C  1131  1  0.91572500  0.93568100  0.63802300  1
  C  1132  1  0.88927800  0.92185800  0.62888900  1
  C  1133  1  0.86730400  0.94207200  0.62011700  1
  C  1134  1  0.87094900  0.97544300  0.62051800  1
  C  1137  1  0.88318800  0.88840100  0.62861600  1
  C  1138  1  0.87427400  0.87211900  0.64422000  1
  C  1139  1  0.86792800  0.83905600  0.64392700  1
  C  1140  1  0.87016900  0.82153100  0.62798800  1
  C  1141  1  0.87899300  0.83784800  0.61242100  1
  C  1142  1  0.88514700  0.87094500  0.61266900  1
  C  1153  1  0.46572000  0.89262000  0.37969300  1
  C  1154  1  0.44554900  0.87046400  0.38832900  1
  C  1155  1  0.41177100  0.87366400  0.38806400  1
  C  1156  1  0.39802000  0.90014700  0.37892800  1
  C  1157  1  0.41828500  0.92208500  0.37016700  1
  C  1158  1  0.45164600  0.91837300  0.37058300  1
  C  1161  1  0.36458300  0.90632800  0.37865500  1
  C  1162  1  0.34833100  0.91526400  0.39426500  1
  C  1163  1  0.31529700  0.92174600  0.39397000  1
  C  1164  1  0.29778100  0.91962600  0.37802400  1
  C  1165  1  0.31407000  0.91078400  0.36245000  1
  C  1166  1  0.34713700  0.90448800  0.36270200  1
  C  1177  1  0.79984400  0.42060500  0.87962400  1
  C  1178  1  0.81995900  0.44279500  0.88827600  1
  C  1179  1  0.85374400  0.43965500  0.88803900  1
  C  1180  1  0.86757200  0.41320000  0.87891400  1
  C  1181  1  0.84736500  0.39122400  0.87014100  1
  C  1182  1  0.81399400  0.39487200  0.87053200  1
  C  1185  1  0.90103200  0.40711200  0.87864800  1
  C  1186  1  0.91730600  0.39820600  0.89425600  1
  C  1187  1  0.95036900  0.39186500  0.89396900  1
  C  1188  1  0.96790100  0.39410200  0.87803400  1
  C  1189  1  0.95159300  0.40291300  0.86246100  1
  C  1190  1  0.91849500  0.40906400  0.86270400  1
  C  1201  1  0.89673600  0.32383100  0.62054100  1
  C  1202  1  0.91894900  0.34395900  0.61191600  1
  C  1203  1  0.91577800  0.37774100  0.61214100  1
  C  1204  1  0.88926400  0.39155700  0.62122100  1
  C  1205  1  0.86727300  0.37133600  0.62997300  1
  C  1206  1  0.87095600  0.33796700  0.62960000  1
  C  1209  1  0.88308800  0.42500300  0.62142800  1
  C  1210  1  0.87430700  0.44118200  0.60576800  1
  C  1211  1  0.86783000  0.47422100  0.60599200  1
  C  1212  1  0.86979900  0.49183100  0.62191300  1
  C  1213  1  0.87847900  0.47561300  0.63753800  1
  C  1214  1  0.88477200  0.44254000  0.63735800  1
  C  1225  1  0.36880300  0.98950300  0.12051500  1
  C  1226  1  0.34658700  0.96937500  0.11189200  1
  C  1227  1  0.34975100  0.93559200  0.11212300  1
  C  1228  1  0.37625600  0.92177700  0.12121000  1
  C  1229  1  0.39825000  0.94199800  0.12996200  1
  C  1230  1  0.39457500  0.97536700  0.12958000  1
  C  1233  1  0.38242400  0.88832900  0.12142300  1
  C  1234  1  0.39120500  0.87214100  0.10576600  1
  C  1235  1  0.39766900  0.83909900  0.10599400  1
  C  1236  1  0.39569000  0.82149800  0.12191900  1
  C  1237  1  0.38701000  0.83772400  0.13754000  1
  C  1238  1  0.38073100  0.87080100  0.13735600  1
  C  1249  1  0.79976000  0.89268200  0.37043600  1
  C  1250  1  0.81991100  0.87054800  0.36176600  1
  C  1251  1  0.85368900  0.87371400  0.36203500  1
  C  1252  1  0.86746400  0.90013700  0.37121100  1
  C  1253  1  0.84722200  0.92205900  0.37999900  1
  C  1254  1  0.81385800  0.91838500  0.37957600  1
  C  1257  1  0.90091200  0.90623200  0.37153100  1
  C  1258  1  0.91723700  0.91529500  0.35596800  1
  C  1259  1  0.95029900  0.92163300  0.35631100  1
  C  1260  1  0.96776500  0.91922900  0.37226000  1
  C  1261  1  0.95140500  0.91025300  0.38778800  1
  C  1262  1  0.91831100  0.90411000  0.38748900  1
  C  1273  1  0.46559700  0.42062900  0.87052900  1
  C  1274  1  0.44547100  0.44284100  0.86190400  1
  C  1275  1  0.41168800  0.43967400  0.86212900  1
  C  1276  1  0.39787100  0.41316700  0.87121500  1
  C  1277  1  0.41809100  0.39117700  0.87996800  1
  C  1278  1  0.45145900  0.39485500  0.87959200  1
  C  1281  1  0.36442300  0.40699800  0.87142500  1
  C  1282  1  0.34823700  0.39821300  0.85576700  1
  C  1283  1  0.31519800  0.39174300  0.85599500  1
  C  1284  1  0.29759400  0.39371900  0.87191900  1
  C  1285  1  0.31381800  0.40240200  0.88754100  1
  C  1286  1  0.34689300  0.40868800  0.88735700  1
  C  1297  1  0.50685300  0.72620500  0.20851200  1
  C  1298  1  0.48462000  0.72418200  0.22249900  1
  C  1299  1  0.49129200  0.73744500  0.23933800  1
  C  1300  1  0.52130900  0.75292300  0.24213000  1
  C  1301  1  0.54299300  0.75567100  0.22786400  1
  C  1302  1  0.53578800  0.74261400  0.21128100  1
  C  1305  1  0.53274300  0.76168900  0.25916500  1
  C  1306  1  0.53638500  0.73785900  0.27225700  1
  C  1307  1  0.55107100  0.74497900  0.28846400  1
  C  1308  1  0.56303200  0.77589200  0.29187100  1
  C  1309  1  0.55934100  0.79992500  0.27892000  1
  C  1310  1  0.54443400  0.79281400  0.26270200  1
  C  1321  1  0.75856500  0.58703000  0.70852100  1
  C  1322  1  0.78078500  0.58904400  0.72251400  1
  C  1323  1  0.77409500  0.57577200  0.73934900  1
  C  1324  1  0.74407500  0.56029400  0.74212900  1
  C  1325  1  0.72240400  0.55755500  0.72785800  1
  C  1326  1  0.72962500  0.57062400  0.71127900  1
  C  1329  1  0.73262300  0.55152100  0.75916000  1
  C  1330  1  0.72897300  0.57534200  0.77225700  1
  C  1331  1  0.71426500  0.56821700  0.78845700  1
  C  1332  1  0.70228600  0.53730800  0.79185400  1
  C  1333  1  0.70598700  0.51328100  0.77890000  1
  C  1334  1  0.72091700  0.52039500  0.76268800  1
  C  1345  1  0.06337310  0.03098680  0.45854200  1
  C  1346  1  0.06538210  0.00874482  0.47252300  1
  C  1347  1  0.05207610  0.01539180  0.48935600  1
  C  1348  1  0.03656910  0.04539580  0.49214400  1
  C  1349  1  0.03383610  0.06708780  0.47788100  1
  C  1350  1  0.04693310  0.05990480  0.46130500  1
  C  1353  1  0.02775810  0.05680980  0.50917600  1
  C  1354  1  0.05155710  0.06044980  0.52228500  1
  C  1355  1  0.04439610  0.07512880  0.53848900  1
  C  1356  1  0.01347810  0.08709080  0.54187600  1
  C  1357  1  0.98947400  0.08339980  0.52890700  1
  C  1358  1  0.99662000  0.06849880  0.51269300  1
  C  1369  1  0.20237400  0.28251400  0.95851700  1
  C  1370  1  0.20035800  0.30473400  0.97251000  1
  C  1371  1  0.21363500  0.29804900  0.98934400  1
  C  1372  1  0.22912200  0.26803100  0.99212500  1
  C  1373  1  0.23186100  0.24636100  0.97785100  1
  C  1374  1  0.21878700  0.25357900  0.96127400  1
  C  1377  1  0.23789800  0.25658100  0.00915500  1
  C  1378  1  0.21407700  0.25292600  0.02225100  1
  C  1379  1  0.22120800  0.23822100  0.03845100  1
  C  1380  1  0.25212000  0.22625000  0.04184800  1
  C  1381  1  0.27614400  0.22995300  0.02889400  1
  C  1382  1  0.26902600  0.24488000  0.01268200  1
  C  1393  1  0.75855300  0.72617900  0.54161800  1
  C  1394  1  0.78078800  0.72416000  0.52763300  1
  C  1395  1  0.77412400  0.73743500  0.51079600  1
  C  1396  1  0.74411100  0.75292500  0.50800600  1
  C  1397  1  0.72242600  0.75567300  0.52227100  1
  C  1398  1  0.72962300  0.74259900  0.53885200  1
  C  1401  1  0.73268200  0.76170600  0.49097100  1
  C  1402  1  0.72903900  0.73788500  0.47787300  1
  C  1403  1  0.71435600  0.74501700  0.46166800  1
  C  1404  1  0.70239600  0.77593000  0.45826600  1
  C  1405  1  0.70609200  0.79995600  0.47122100  1
  C  1406  1  0.72099600  0.79283600  0.48743800  1
  C  1417  1  0.50693200  0.58711400  0.04160300  1
  C  1418  1  0.48470000  0.58912600  0.02761700  1
  C  1419  1  0.49137100  0.57584700  0.01078100  1
  C  1420  1  0.52138700  0.56036300  0.00799400  1
  C  1421  1  0.54306900  0.55762500  0.02226100  1
  C  1422  1  0.53586500  0.57069900  0.03884100  1
  C  1425  1  0.53282300  0.55158300  0.99096200  1
  C  1426  1  0.53646300  0.57540100  0.97786300  1
  C  1427  1  0.55115900  0.56826900  0.96166100  1
  C  1428  1  0.56313300  0.53736000  0.95826400  1
  C  1429  1  0.55944200  0.51333600  0.97122000  1
  C  1430  1  0.54452400  0.52045500  0.98743500  1
  C  1441  1  0.20219000  0.03094580  0.29159000  1
  C  1442  1  0.20019500  0.00871882  0.27760100  1
  C  1443  1  0.21350100  0.01539180  0.26077200  1
  C  1444  1  0.22899500  0.04540480  0.25799500  1
  C  1445  1  0.23171500  0.06708280  0.27226500  1
  C  1446  1  0.21861500  0.05987580  0.28883800  1
  C  1449  1  0.23779500  0.05684780  0.24096700  1
  C  1450  1  0.21399400  0.06048580  0.22785800  1
  C  1451  1  0.22114100  0.07518880  0.21166000  1
  C  1452  1  0.25205100  0.08717180  0.20827600  1
  C  1453  1  0.27606000  0.08348580  0.22124200  1
  C  1454  1  0.26892300  0.06856080  0.23745200  1
  C  1465  1  0.06326010  0.28250200  0.79161100  1
  C  1466  1  0.06528910  0.30473700  0.77762700  1
  C  1467  1  0.05200910  0.29808000  0.76078900  1
  C  1468  1  0.03650510  0.26807700  0.75799900  1
  C  1469  1  0.03375210  0.24638900  0.77226300  1
  C  1470  1  0.04682810  0.25358200  0.78884500  1
  C  1473  1  0.02771510  0.25665300  0.74096600  1
  C  1474  1  0.05153110  0.25299600  0.72786600  1
  C  1475  1  0.04438610  0.23831000  0.71166300  1
  C  1476  1  0.01346610  0.22636500  0.70826500  1
  C  1477  1  0.98944500  0.23007500  0.72122100  1
  C  1478  1  0.99657700  0.24498100  0.73743700  1
  N  380  1  0.94433900  0.98891900  0.14633100  1
  N  383  1  0.01675100  0.11663400  0.12692900  1
  N  384  1  0.98508500  0.88534600  0.12976800  1
  N  404  1  0.55574600  0.51115200  0.64627600  1
  N  407  1  0.48332100  0.38345000  0.62688300  1
  N  408  1  0.51499100  0.61473500  0.62973800  1
  N  428  1  0.01110100  0.44435700  0.39630400  1
  N  431  1  0.88364300  0.51729200  0.37691300  1
  N  432  1  0.11477500  0.48493700  0.37982600  1
  N  452  1  0.48895100  0.05576300  0.89629100  1
  N  455  1  0.61666700  0.98333600  0.87693300  1
  N  456  1  0.38538100  0.01500900  0.87972800  1
  N  476  1  0.55582500  0.98904300  0.60391400  1
  N  479  1  0.48277300  0.11666200  0.62296300  1
  N  480  1  0.51506300  0.88544900  0.62042700  1
  N  500  1  0.94430300  0.51105700  0.10389800  1
  N  503  1  0.01730400  0.38342900  0.12297200  1
  N  504  1  0.98508200  0.61465100  0.12039800  1
  N  524  1  0.48894100  0.44442900  0.35376300  1
  N  527  1  0.61652100  0.51669200  0.37340600  1
  N  528  1  0.38530600  0.48501600  0.37030700  1
  N  548  1  0.01107200  0.05580300  0.85390100  1
  N  551  1  0.88344500  0.98277900  0.87297300  1
  N  552  1  0.11466200  0.01503800  0.87041800  1
  N  572  1  0.08599700  0.32831100  0.25220900  1
  N  575  1  0.19550500  0.37299800  0.30703900  1
  N  576  1  0.12100800  0.30520700  0.19304400  1
  N  596  1  0.41398000  0.17166100  0.75222600  1
  N  599  1  0.30439200  0.12696300  0.80701400  1
  N  600  1  0.37902300  0.19480800  0.69305800  1
  N  620  1  0.67187600  0.58616900  0.50222100  1
  N  623  1  0.62702400  0.69565200  0.55703800  1
  N  624  1  0.69506800  0.62123600  0.44307600  1
  N  644  1  0.82842700  0.91401500  0.00222200  1
  N  647  1  0.87315000  0.80443900  0.05700900  1
  N  648  1  0.80527400  0.87905100  0.94305600  1
  N  668  1  0.41402300  0.32830600  0.49792700  1
  N  671  1  0.30451900  0.37304300  0.44310100  1
  N  672  1  0.37899400  0.30517400  0.55708600  1
  N  692  1  0.08607600  0.17173200  0.99791100  1
  N  695  1  0.19562200  0.12701000  0.94310200  1
  N  696  1  0.12108600  0.19488600  0.05706900  1
  N  716  1  0.82831700  0.58618100  0.24789900  1
  N  719  1  0.87310000  0.69573800  0.19311400  1
  N  720  1  0.80507500  0.62118300  0.30704800  1
  N  740  1  0.67183100  0.91406100  0.74792000  1
  N  743  1  0.62702700  0.80455800  0.69310400  1
  N  744  1  0.69494100  0.87902400  0.80708000  1
  N  1124  1  0.32703800  0.39553700  0.14633100  1
  N  1127  1  0.39945000  0.52325200  0.12692900  1
  N  1128  1  0.36778400  0.29196400  0.12976800  1
  N  1148  1  0.93844500  0.91777000  0.64627600  1
  N  1151  1  0.86602000  0.79006800  0.62688300  1
  N  1152  1  0.89769000  0.02135280  0.62973800  1
  N  1172  1  0.39380000  0.85097500  0.39630400  1
  N  1175  1  0.26634200  0.92391000  0.37691300  1
  N  1176  1  0.49747400  0.89155500  0.37982600  1
  N  1196  1  0.87165000  0.46238100  0.89629100  1
  N  1199  1  0.99936600  0.38995400  0.87693300  1
  N  1200  1  0.76808000  0.42162700  0.87972800  1
  N  1220  1  0.93852400  0.39566100  0.60391400  1
  N  1223  1  0.86547200  0.52328000  0.62296300  1
  N  1224  1  0.89776200  0.29206700  0.62042700  1
  N  1244  1  0.32700200  0.91767500  0.10389800  1
  N  1247  1  0.40000300  0.79004700  0.12297200  1
  N  1248  1  0.36778100  0.02126880  0.12039800  1
  N  1268  1  0.87164000  0.85104700  0.35376300  1
  N  1271  1  0.99922000  0.92331000  0.37340600  1
  N  1272  1  0.76800500  0.89163400  0.37030700  1
  N  1292  1  0.39377100  0.46242100  0.85390100  1
  N  1295  1  0.26614400  0.38939700  0.87297300  1
  N  1296  1  0.49736100  0.42165600  0.87041800  1
  N  1316  1  0.46869600  0.73492900  0.25220900  1
  N  1319  1  0.57820400  0.77961600  0.30703900  1
  N  1320  1  0.50370700  0.71182500  0.19304400  1
  N  1340  1  0.79667900  0.57827900  0.75222600  1
  N  1343  1  0.68709100  0.53358100  0.80701400  1
  N  1344  1  0.76172200  0.60142600  0.69305800  1
  N  1364  1  0.05457510  0.99278700  0.50222100  1
  N  1367  1  0.00972313  0.10227000  0.55703800  1
  N  1368  1  0.07776710  0.02785380  0.44307600  1
  N  1388  1  0.21112600  0.32063300  0.00222200  1
  N  1391  1  0.25584900  0.21105700  0.05700900  1
  N  1392  1  0.18797300  0.28566900  0.94305600  1
  N  1412  1  0.79672200  0.73492400  0.49792700  1
  N  1415  1  0.68721800  0.77966100  0.44310100  1
  N  1416  1  0.76169300  0.71179200  0.55708600  1
  N  1436  1  0.46877500  0.57835000  0.99791100  1
  N  1439  1  0.57832100  0.53362800  0.94310200  1
  N  1440  1  0.50378500  0.60150400  0.05706900  1
  N  1460  1  0.21101600  0.99279900  0.24789900  1
  N  1463  1  0.25579900  0.10235600  0.19311400  1
  N  1464  1  0.18777400  0.02780080  0.30704800  1
  N  1484  1  0.05453010  0.32067900  0.74792000  1
  N  1487  1  0.00972613  0.21117600  0.69310400  1
  N  1488  1  0.07764010  0.28564200  0.80708000  1
