# generated using pymatgen
data_SiH24C48(NO2)8
_symmetry_space_group_name_H-M   'P 1'
_cell_length_a   28.70240000
_cell_length_b   58.54170000
_cell_length_c   58.54170000
_cell_angle_alpha   60.00000000
_cell_angle_beta   89.97390000
_cell_angle_gamma   90.00000000
_symmetry_Int_Tables_number   1
_chemical_formula_structural   SiH24C48(NO2)8
_chemical_formula_sum   'Si12 H288 C576 N96 O192'
_cell_volume   85188.20037945
_cell_formula_units_Z   12
loop_
 _symmetry_equiv_pos_site_id
 _symmetry_equiv_pos_as_xyz
  1  'x, y, z'
loop_
 _atom_site_type_symbol
 _atom_site_label
 _atom_site_symmetry_multiplicity
 _atom_site_fract_x
 _atom_site_fract_y
 _atom_site_fract_z
 _atom_site_occupancy
  Si  10  1  0.75049200  0.12302800  0.44021000  1
  Si  51  1  0.75015600  0.44054300  0.43873300  1
  Si  92  1  0.75053000  0.43908000  0.12267900  1
  Si  133  1  0.25037800  0.87874500  0.56088000  1
  Si  174  1  0.25004100  0.56123100  0.56233600  1
  Si  215  1  0.25075500  0.56269700  0.87839500  1
  Si  592  1  0.75049200  0.93512780  0.09857320  1
  Si  633  1  0.75015600  0.25264300  0.09709600  1
  Si  674  1  0.75053000  0.25118000  0.78104200  1
  Si  715  1  0.25037800  0.69084500  0.21924290  1
  Si  756  1  0.25004100  0.37333100  0.22069900  1
  Si  797  1  0.25075500  0.37479700  0.53675790  1
  H  29  1  0.81373700  0.16966900  0.48143000  1
  H  30  1  0.81562600  0.13600200  0.47008800  1
  H  31  1  0.68188400  0.19418300  0.44541900  1
  H  32  1  0.68258200  0.16016800  0.43455300  1
  H  33  1  0.68550300  0.13366300  0.39783300  1
  H  34  1  0.68684300  0.16556400  0.35246100  1
  H  35  1  0.81484500  0.19479900  0.36284100  1
  H  36  1  0.81527700  0.16199900  0.40786200  1
  H  37  1  0.82282100  0.11182500  0.41271000  1
  H  38  1  0.88582200  0.08187900  0.42837700  1
  H  39  1  0.84474400  0.05570800  0.50693400  1
  H  40  1  0.78185100  0.08616500  0.49147300  1
  H  41  1  0.67825800  0.11051800  0.47934700  1
  H  42  1  0.72246500  0.08513900  0.42648000  1
  H  43  1  0.66039600  0.05389000  0.44140100  1
  H  44  1  0.61634800  0.07951100  0.49372400  1
  H  70  1  0.81340800  0.48183200  0.35083900  1
  H  71  1  0.81528900  0.47047500  0.39584400  1
  H  72  1  0.68160400  0.44572800  0.36238300  1
  H  73  1  0.68228700  0.43484700  0.40726100  1
  H  74  1  0.68515000  0.39814800  0.47052400  1
  H  75  1  0.68648400  0.35276600  0.48403700  1
  H  76  1  0.81448500  0.36316800  0.44437100  1
  H  77  1  0.81491100  0.40819700  0.43210300  1
  H  78  1  0.82247300  0.41305400  0.47741100  1
  H  79  1  0.88549100  0.42872900  0.49167000  1
  H  80  1  0.84447200  0.50728100  0.43930800  1
  H  81  1  0.78156100  0.49181200  0.42433200  1
  H  82  1  0.67791500  0.47963800  0.41210800  1
  H  83  1  0.72210100  0.42684400  0.49035000  1
  H  84  1  0.66002300  0.44176100  0.50667600  1
  H  85  1  0.61598600  0.49400600  0.42873600  1
  H  111  1  0.81388200  0.35124300  0.16927600  1
  H  112  1  0.81572400  0.39624400  0.13562500  1
  H  113  1  0.68199000  0.36267500  0.19384800  1
  H  114  1  0.68263400  0.40755200  0.15984400  1
  H  115  1  0.68547300  0.47085800  0.13326300  1
  H  116  1  0.68668900  0.48435300  0.16514100  1
  H  117  1  0.81461900  0.44471100  0.19445500  1
  H  118  1  0.81517000  0.43246200  0.16168400  1
  H  119  1  0.82286000  0.47776800  0.11153100  1
  H  120  1  0.88595300  0.49204800  0.08161600  1
  H  121  1  0.84500100  0.43972100  0.05536600  1
  H  122  1  0.78201800  0.42472300  0.08579100  1
  H  123  1  0.67832100  0.41242900  0.11020800  1
  H  124  1  0.72252300  0.49068400  0.08475800  1
  H  125  1  0.66050900  0.50699300  0.05350100  1
  H  126  1  0.61645600  0.42903800  0.07919800  1
  H  152  1  0.31363500  0.83216400  0.51957900  1
  H  153  1  0.31551600  0.86581300  0.53093500  1
  H  154  1  0.18183700  0.80755800  0.55570900  1
  H  155  1  0.18252000  0.84155100  0.56659500  1
  H  156  1  0.18534200  0.86809800  0.60328400  1
  H  157  1  0.18667600  0.83621400  0.64866100  1
  H  158  1  0.31470100  0.80701600  0.63822900  1
  H  159  1  0.31512900  0.83979100  0.59320500  1
  H  160  1  0.32268600  0.88995400  0.58836700  1
  H  161  1  0.38570200  0.91990800  0.57268600  1
  H  162  1  0.34468800  0.94609200  0.49414000  1
  H  163  1  0.28178000  0.91562700  0.50961400  1
  H  164  1  0.17817200  0.89122500  0.52176600  1
  H  165  1  0.22231500  0.91663500  0.57460300  1
  H  166  1  0.16027400  0.94788200  0.55968000  1
  H  167  1  0.11628100  0.92222600  0.50739200  1
  H  193  1  0.31322300  0.51993600  0.65019800  1
  H  194  1  0.31511200  0.53129000  0.60519600  1
  H  195  1  0.18148500  0.55606700  0.63871100  1
  H  196  1  0.18216500  0.56694700  0.59383100  1
  H  197  1  0.18505600  0.60362500  0.53058700  1
  H  198  1  0.18641200  0.64899900  0.51710500  1
  H  199  1  0.31439800  0.63859000  0.55671600  1
  H  200  1  0.31480500  0.59356900  0.56895300  1
  H  201  1  0.32242800  0.58872000  0.52365100  1
  H  202  1  0.38543700  0.57303900  0.50937000  1
  H  203  1  0.34427300  0.49449200  0.56171700  1
  H  204  1  0.28137200  0.50996800  0.57671200  1
  H  205  1  0.17776100  0.52212700  0.58897200  1
  H  206  1  0.22205000  0.57494600  0.51072500  1
  H  207  1  0.16001700  0.56002100  0.49439900  1
  H  208  1  0.11587400  0.50774800  0.57234500  1
  H  234  1  0.31401400  0.65056700  0.83172200  1
  H  235  1  0.31591700  0.60556400  0.86536700  1
  H  236  1  0.18211600  0.63905600  0.80726500  1
  H  237  1  0.18282000  0.59416900  0.84127100  1
  H  238  1  0.18564200  0.53092300  0.86785300  1
  H  239  1  0.18681200  0.51743200  0.83597200  1
  H  240  1  0.31477700  0.55706700  0.80658300  1
  H  241  1  0.31538000  0.56930600  0.83936200  1
  H  242  1  0.32309400  0.52402600  0.88952400  1
  H  243  1  0.38612300  0.50974300  0.91944900  1
  H  244  1  0.34514400  0.56210200  0.94566300  1
  H  245  1  0.28222600  0.57709900  0.91523400  1
  H  246  1  0.17858600  0.58934000  0.89091600  1
  H  247  1  0.22275000  0.51108600  0.91634600  1
  H  248  1  0.16072000  0.49477000  0.94763100  1
  H  249  1  0.11670600  0.57272100  0.92195600  1
  H  256  1  0.93548900  0.05803400  0.50572200  1
  H  263  1  0.13433600  0.98717800  0.49355100  1
  H  264  1  0.04637100  0.92980800  0.55126900  1
  H  265  1  0.89435800  0.03136800  0.45400100  1
  H  284  1  0.93522900  0.50609100  0.43818000  1
  H  291  1  0.13399100  0.49390100  0.52122900  1
  H  292  1  0.04606800  0.55161500  0.52088200  1
  H  293  1  0.89401300  0.45434000  0.51656800  1
  H  311  1  0.93573200  0.43858100  0.05773100  1
  H  318  1  0.13470500  0.52159800  0.98693200  1
  H  319  1  0.04684100  0.52127700  0.92954800  1
  H  320  1  0.89463200  0.51696700  0.03111000  1
  H  339  1  0.43544300  0.94377100  0.49532500  1
  H  346  1  0.63431200  0.01458100  0.50756800  1
  H  347  1  0.54652800  0.07195200  0.44979600  1
  H  348  1  0.39428000  0.97041300  0.54707400  1
  H  367  1  0.43504300  0.49567500  0.56286700  1
  H  373  1  0.63400600  0.50786500  0.47985100  1
  H  374  1  0.54610700  0.45014800  0.48018900  1
  H  375  1  0.39400100  0.54742400  0.48447400  1
  H  393  1  0.43590000  0.56321400  0.94332600  1
  H  400  1  0.63459800  0.48013500  0.01422900  1
  H  401  1  0.54657700  0.48050400  0.07156900  1
  H  402  1  0.39465200  0.48484100  0.96995600  1
  H  421  1  0.82097400  0.20299300  0.31740200  1
  H  428  1  0.75460800  0.34068700  0.23386800  1
  H  429  1  0.74486900  0.30605700  0.18604000  1
  H  430  1  0.67853100  0.21364700  0.32658600  1
  H  449  1  0.82062200  0.31774600  0.48162900  1
  H  456  1  0.75443900  0.23426000  0.42739500  1
  H  457  1  0.74464900  0.18636800  0.50984900  1
  H  458  1  0.67819200  0.32686100  0.46182700  1
  H  477  1  0.82069700  0.48196300  0.20262900  1
  H  484  1  0.75411300  0.42775600  0.34029700  1
  H  485  1  0.74447700  0.51020900  0.30573200  1
  H  486  1  0.67824000  0.46217200  0.21323300  1
  H  505  1  0.32085000  0.79886400  0.68364300  1
  H  512  1  0.25471300  0.66111100  0.76717200  1
  H  513  1  0.24491900  0.69568600  0.81505200  1
  H  514  1  0.17842300  0.78809700  0.67457500  1
  H  533  1  0.32056400  0.68401600  0.51945300  1
  H  540  1  0.25440600  0.76753500  0.57366900  1
  H  541  1  0.24460900  0.81540400  0.49121900  1
  H  542  1  0.17812300  0.67489800  0.53931100  1
  H  561  1  0.32080500  0.51984800  0.79836100  1
  H  568  1  0.25395300  0.57404500  0.66074000  1
  H  569  1  0.24437500  0.49158400  0.69534700  1
  H  570  1  0.17835300  0.53962000  0.78789800  1
  H  611  1  0.81373700  0.98176880  0.13979320  1
  H  612  1  0.81562600  0.94810180  0.12845120  1
  H  613  1  0.68188400  0.00628300  0.10378200  1
  H  614  1  0.68258200  0.97226780  0.09291620  1
  H  615  1  0.68550300  0.94576280  0.05619620  1
  H  616  1  0.68684300  0.97766380  0.01082410  1
  H  617  1  0.81484500  0.00689900  0.02120400  1
  H  618  1  0.81527700  0.97409880  0.06622520  1
  H  619  1  0.82282100  0.92392480  0.07107313  1
  H  620  1  0.88582200  0.89397900  0.08673990  1
  H  621  1  0.84474400  0.86780800  0.16529700  1
  H  622  1  0.78185100  0.89826500  0.14983600  1
  H  623  1  0.67825800  0.92261780  0.13771020  1
  H  624  1  0.72246500  0.89723900  0.08484290  1
  H  625  1  0.66039600  0.86599000  0.09976390  1
  H  626  1  0.61634800  0.89161100  0.15208700  1
  H  652  1  0.81340800  0.29393200  0.00920200  1
  H  653  1  0.81528900  0.28257500  0.05420700  1
  H  654  1  0.68160400  0.25782800  0.02074600  1
  H  655  1  0.68228700  0.24694700  0.06562400  1
  H  656  1  0.68515000  0.21024800  0.12888700  1
  H  657  1  0.68648400  0.16486600  0.14240000  1
  H  658  1  0.81448500  0.17526800  0.10273400  1
  H  659  1  0.81491100  0.22029700  0.09046600  1
  H  660  1  0.82247300  0.22515400  0.13577400  1
  H  661  1  0.88549100  0.24082900  0.15003300  1
  H  662  1  0.84447200  0.31938100  0.09767100  1
  H  663  1  0.78156100  0.30391200  0.08269500  1
  H  664  1  0.67791500  0.29173800  0.07047100  1
  H  665  1  0.72210100  0.23894400  0.14871300  1
  H  666  1  0.66002300  0.25386100  0.16503900  1
  H  667  1  0.61598600  0.30610600  0.08709900  1
  H  693  1  0.81388200  0.16334300  0.82763893  1
  H  694  1  0.81572400  0.20834400  0.79398800  1
  H  695  1  0.68199000  0.17477500  0.85221100  1
  H  696  1  0.68263400  0.21965200  0.81820700  1
  H  697  1  0.68547300  0.28295800  0.79162600  1
  H  698  1  0.68668900  0.29645300  0.82350400  1
  H  699  1  0.81461900  0.25681100  0.85281800  1
  H  700  1  0.81517000  0.24456200  0.82004700  1
  H  701  1  0.82286000  0.28986800  0.76989400  1
  H  702  1  0.88595300  0.30414800  0.73997900  1
  H  703  1  0.84500100  0.25182100  0.71372890  1
  H  704  1  0.78201800  0.23682300  0.74415390  1
  H  705  1  0.67832100  0.22452900  0.76857093  1
  H  706  1  0.72252300  0.30278400  0.74312100  1
  H  707  1  0.66050900  0.31909300  0.71186400  1
  H  708  1  0.61645600  0.24113800  0.73756090  1
  H  734  1  0.31363500  0.64426400  0.17794200  1
  H  735  1  0.31551600  0.67791300  0.18929800  1
  H  736  1  0.18183700  0.61965800  0.21407200  1
  H  737  1  0.18252000  0.65365100  0.22495800  1
  H  738  1  0.18534200  0.68019800  0.26164690  1
  H  739  1  0.18667600  0.64831400  0.30702390  1
  H  740  1  0.31470100  0.61911600  0.29659190  1
  H  741  1  0.31512900  0.65189100  0.25156790  1
  H  742  1  0.32268600  0.70205400  0.24672990  1
  H  743  1  0.38570200  0.73200800  0.23104890  1
  H  744  1  0.34468800  0.75819200  0.15250290  1
  H  745  1  0.28178000  0.72772700  0.16797700  1
  H  746  1  0.17817200  0.70332500  0.18012900  1
  H  747  1  0.22231500  0.72873500  0.23296590  1
  H  748  1  0.16027400  0.75998200  0.21804290  1
  H  749  1  0.11628100  0.73432600  0.16575490  1
  H  775  1  0.31322300  0.33203600  0.30856100  1
  H  776  1  0.31511200  0.34339000  0.26355900  1
  H  777  1  0.18148500  0.36816700  0.29707400  1
  H  778  1  0.18216500  0.37904700  0.25219400  1
  H  779  1  0.18505600  0.41572500  0.18895000  1
  H  780  1  0.18641200  0.46109900  0.17546800  1
  H  781  1  0.31439800  0.45069000  0.21507900  1
  H  782  1  0.31480500  0.40566900  0.22731600  1
  H  783  1  0.32242800  0.40082000  0.18201400  1
  H  784  1  0.38543700  0.38513900  0.16773300  1
  H  785  1  0.34427300  0.30659200  0.22008000  1
  H  786  1  0.28137200  0.32206800  0.23507500  1
  H  787  1  0.17776100  0.33422700  0.24733500  1
  H  788  1  0.22205000  0.38704600  0.16908800  1
  H  789  1  0.16001700  0.37212100  0.15276200  1
  H  790  1  0.11587400  0.31984800  0.23070800  1
  H  816  1  0.31401400  0.46266700  0.49008490  1
  H  817  1  0.31591700  0.41766400  0.52372990  1
  H  818  1  0.18211600  0.45115600  0.46562790  1
  H  819  1  0.18282000  0.40626900  0.49963390  1
  H  820  1  0.18564200  0.34302300  0.52621600  1
  H  821  1  0.18681200  0.32953200  0.49433500  1
  H  822  1  0.31477700  0.36916700  0.46494600  1
  H  823  1  0.31538000  0.38140600  0.49772500  1
  H  824  1  0.32309400  0.33612600  0.54788700  1
  H  825  1  0.38612300  0.32184300  0.57781200  1
  H  826  1  0.34514400  0.37420200  0.60402590  1
  H  827  1  0.28222600  0.38919900  0.57359690  1
  H  828  1  0.17858600  0.40144000  0.54927890  1
  H  829  1  0.22275000  0.32318600  0.57470900  1
  H  830  1  0.16072000  0.30687000  0.60599390  1
  H  831  1  0.11670600  0.38482100  0.58031890  1
  H  838  1  0.93548900  0.87013400  0.16408500  1
  H  845  1  0.13433600  0.79927800  0.15191390  1
  H  846  1  0.04637100  0.74190800  0.20963190  1
  H  847  1  0.89435800  0.84346800  0.11236390  1
  H  866  1  0.93522900  0.31819100  0.09654300  1
  H  873  1  0.13399100  0.30600100  0.17959200  1
  H  874  1  0.04606800  0.36371500  0.17924500  1
  H  875  1  0.89401300  0.26644000  0.17493100  1
  H  893  1  0.93573200  0.25068100  0.71609390  1
  H  900  1  0.13470500  0.33369800  0.64529490  1
  H  901  1  0.04684100  0.33333333  0.58795457  1
  H  902  1  0.89463200  0.32906700  0.68947300  1
  H  921  1  0.43544300  0.75587100  0.15368790  1
  H  928  1  0.63431200  0.82668100  0.16593093  1
  H  929  1  0.54652800  0.88405200  0.10815893  1
  H  930  1  0.39428000  0.78251300  0.20543690  1
  H  949  1  0.43504300  0.30777500  0.22123000  1
  H  955  1  0.63400600  0.31996500  0.13821400  1
  H  956  1  0.54610700  0.26224800  0.13855200  1
  H  957  1  0.39400100  0.35952400  0.14283700  1
  H  975  1  0.43590000  0.37531400  0.60168890  1
  H  982  1  0.63459800  0.29223500  0.67259190  1
  H  983  1  0.54657700  0.29260400  0.72993200  1
  H  984  1  0.39465200  0.29694100  0.62831890  1
  H  1003  1  0.82097400  0.01509300  0.97576493  1
  H  1010  1  0.75460800  0.15278700  0.89223100  1
  H  1011  1  0.74486900  0.11815700  0.84440290  1
  H  1012  1  0.67853100  0.02574700  0.98494900  1
  H  1031  1  0.82062200  0.12984600  0.13999200  1
  H  1038  1  0.75443900  0.04636000  0.08575800  1
  H  1039  1  0.74464900  0.99846775  0.16821225  1
  H  1040  1  0.67819200  0.13896100  0.12019000  1
  H  1059  1  0.82069700  0.29406300  0.86099200  1
  H  1066  1  0.75411300  0.23985600  0.99866000  1
  H  1067  1  0.74447700  0.32230900  0.96409500  1
  H  1068  1  0.67824000  0.27427200  0.87159600  1
  H  1087  1  0.32085000  0.61096400  0.34200590  1
  H  1094  1  0.25471300  0.47321100  0.42553500  1
  H  1095  1  0.24491900  0.50778600  0.47341490  1
  H  1096  1  0.17842300  0.60019700  0.33293790  1
  H  1115  1  0.32056400  0.49611600  0.17781600  1
  H  1122  1  0.25440600  0.57963500  0.23203200  1
  H  1123  1  0.24460900  0.62750400  0.14958200  1
  H  1124  1  0.17812300  0.48699800  0.19767400  1
  H  1143  1  0.32080500  0.33194800  0.45672400  1
  H  1150  1  0.25395300  0.38614500  0.31910300  1
  H  1151  1  0.24437500  0.30368400  0.35371000  1
  H  1152  1  0.17835300  0.35172000  0.44626100  1
  C  1  1  0.56524800  0.50813900  0.49265700  1
  C  4  1  0.63240600  0.06421000  0.46857800  1
  C  5  1  0.66376400  0.06604300  0.44920400  1
  C  6  1  0.70020900  0.08455800  0.44045800  1
  C  7  1  0.70568800  0.10210900  0.45036900  1
  C  8  1  0.67468300  0.09942000  0.47043600  1
  C  9  1  0.63828400  0.08088000  0.47928200  1
  C  11  1  0.79676600  0.10318600  0.45042000  1
  C  12  1  0.80379500  0.08591800  0.47778000  1
  C  13  1  0.84106200  0.06793500  0.48701600  1
  C  14  1  0.87188000  0.06604400  0.46920000  1
  C  15  1  0.86429500  0.08272200  0.44189200  1
  C  16  1  0.82731600  0.10086700  0.43266800  1
  C  17  1  0.75118600  0.14358500  0.40765400  1
  C  18  1  0.74844900  0.14369300  0.45204600  1
  C  19  1  0.78599300  0.14705700  0.46582800  1
  C  20  1  0.78517000  0.16705200  0.47250600  1
  C  21  1  0.74715300  0.18460700  0.46509500  1
  C  22  1  0.70943800  0.18134500  0.45154700  1
  C  23  1  0.71008000  0.16119400  0.44517700  1
  C  24  1  0.71418200  0.14552200  0.39078100  1
  C  25  1  0.71451500  0.16479300  0.36385100  1
  C  26  1  0.75136100  0.18322100  0.35277200  1
  C  27  1  0.78832600  0.18129300  0.36962600  1
  C  28  1  0.78820000  0.16195500  0.39647000  1
  C  45  1  0.63203700  0.46889700  0.46918300  1
  C  46  1  0.66339700  0.44954800  0.48672200  1
  C  47  1  0.69985500  0.44081000  0.47695300  1
  C  48  1  0.70535200  0.45070000  0.44949300  1
  C  49  1  0.67432700  0.47073600  0.43211700  1
  C  50  1  0.63791800  0.47957700  0.44181000  1
  C  52  1  0.79643200  0.45075900  0.44835800  1
  C  53  1  0.80349800  0.47812000  0.43826300  1
  C  54  1  0.84077600  0.48736100  0.44699900  1
  C  55  1  0.87158200  0.46955000  0.46669400  1
  C  56  1  0.86397400  0.44224300  0.47732000  1
  C  57  1  0.82698400  0.43301400  0.46841100  1
  C  58  1  0.75081900  0.40798600  0.45074000  1
  C  59  1  0.74814400  0.45236600  0.40623700  1
  C  60  1  0.78566700  0.46618800  0.38906800  1
  C  61  1  0.78483300  0.47290400  0.36238300  1
  C  62  1  0.74684900  0.46545700  0.35224900  1
  C  63  1  0.70917400  0.45184500  0.36909000  1
  C  64  1  0.70978900  0.44548200  0.39560900  1
  C  65  1  0.71382200  0.39110100  0.46570900  1
  C  66  1  0.71414800  0.36416500  0.47338800  1
  C  67  1  0.75099900  0.35308300  0.46604900  1
  C  68  1  0.78794900  0.36995100  0.45108200  1
  C  69  1  0.78782900  0.39680000  0.44355500  1
  C  86  1  0.63252100  0.46948900  0.06385800  1
  C  87  1  0.66386700  0.48703800  0.06567100  1
  C  88  1  0.70028700  0.47728000  0.08418500  1
  C  89  1  0.70576400  0.44982100  0.10175600  1
  C  90  1  0.67476300  0.43243700  0.09908700  1
  C  91  1  0.63837800  0.44211800  0.08055700  1
  C  93  1  0.79684100  0.44873200  0.10284400  1
  C  94  1  0.80395000  0.43865400  0.08556600  1
  C  95  1  0.84127000  0.44740100  0.06760200  1
  C  96  1  0.87208000  0.46709100  0.06574500  1
  C  97  1  0.86443000  0.47770300  0.08243500  1
  C  98  1  0.82739600  0.46878000  0.10056100  1
  C  99  1  0.75111600  0.45107600  0.14323700  1
  C  100  1  0.74852800  0.40657900  0.14333900  1
  C  101  1  0.78607900  0.38943900  0.14668200  1
  C  102  1  0.78524900  0.36274700  0.16663700  1
  C  103  1  0.74726800  0.35259400  0.18423400  1
  C  104  1  0.70954900  0.36939700  0.18100300  1
  C  105  1  0.71015600  0.39591900  0.16085200  1
  C  106  1  0.71408500  0.46602400  0.14515100  1
  C  107  1  0.71435400  0.47371000  0.16440400  1
  C  108  1  0.75115200  0.46637200  0.18284100  1
  C  109  1  0.78812500  0.45141700  0.18095300  1
  C  110  1  0.78807500  0.44389600  0.16162500  1
  C  127  1  0.13231100  0.93754300  0.53252400  1
  C  128  1  0.16364700  0.93572200  0.55188600  1
  C  129  1  0.20008600  0.91721200  0.56062700  1
  C  130  1  0.20557400  0.89964800  0.55072900  1
  C  131  1  0.17459400  0.90233300  0.53066800  1
  C  132  1  0.13819600  0.92086300  0.52183000  1
  C  134  1  0.29666400  0.89859300  0.55066500  1
  C  135  1  0.30371200  0.91587200  0.52330300  1
  C  136  1  0.34099100  0.93386100  0.51405900  1
  C  137  1  0.37179700  0.93574700  0.53186800  1
  C  138  1  0.36418800  0.91906400  0.55917600  1
  C  139  1  0.32719800  0.90091600  0.56840800  1
  C  140  1  0.25103700  0.85819800  0.59343500  1
  C  141  1  0.24836500  0.85807800  0.54905000  1
  C  142  1  0.28588800  0.85474100  0.53522400  1
  C  143  1  0.28507200  0.83475700  0.52853100  1
  C  144  1  0.24707200  0.81717900  0.53596300  1
  C  145  1  0.20937500  0.82041300  0.54955600  1
  C  146  1  0.20999200  0.84056900  0.55591900  1
  C  147  1  0.21402300  0.85625200  0.61032400  1
  C  148  1  0.21433600  0.83697600  0.63725400  1
  C  149  1  0.25120400  0.81857800  0.64832600  1
  C  150  1  0.28815900  0.82049900  0.63145200  1
  C  151  1  0.28803700  0.83982800  0.60460600  1
  C  168  1  0.13198000  0.53287000  0.53189600  1
  C  169  1  0.16335800  0.55222800  0.51435600  1
  C  170  1  0.19979000  0.56097100  0.52412500  1
  C  171  1  0.20523600  0.55107800  0.55158600  1
  C  172  1  0.17421700  0.53102200  0.56896200  1
  C  173  1  0.13782700  0.52218000  0.55927000  1
  C  175  1  0.29632600  0.55101700  0.55270300  1
  C  176  1  0.30333600  0.52365600  0.56278100  1
  C  177  1  0.34063200  0.51440900  0.55405400  1
  C  178  1  0.37145900  0.53221900  0.53434600  1
  C  179  1  0.36389200  0.55952800  0.52372300  1
  C  180  1  0.32688800  0.56876000  0.53263100  1
  C  181  1  0.25073400  0.59378900  0.55032300  1
  C  182  1  0.24798800  0.54941200  0.59483200  1
  C  183  1  0.28549400  0.53557500  0.61198600  1
  C  184  1  0.28465400  0.52886300  0.63866900  1
  C  185  1  0.24669200  0.53632500  0.64881500  1
  C  186  1  0.20902300  0.54992900  0.63199600  1
  C  187  1  0.20961900  0.55627300  0.60548200  1
  C  188  1  0.21373700  0.61067100  0.53538600  1
  C  189  1  0.21406100  0.63759900  0.52774000  1
  C  190  1  0.25092200  0.64867600  0.53506600  1
  C  191  1  0.28786300  0.63181100  0.55000900  1
  C  192  1  0.28773100  0.60496600  0.55751900  1
  C  209  1  0.13275700  0.53227200  0.93729100  1
  C  210  1  0.16410000  0.51472600  0.93546600  1
  C  211  1  0.20052200  0.52448900  0.91693100  1
  C  212  1  0.20599500  0.55194600  0.89935300  1
  C  213  1  0.17502200  0.56933100  0.90204200  1
  C  214  1  0.13863500  0.55964300  0.92059500  1
  C  216  1  0.29708200  0.55308000  0.89819200  1
  C  217  1  0.30415800  0.56316700  0.91546200  1
  C  218  1  0.34145800  0.55443000  0.93341900  1
  C  219  1  0.37224000  0.53472400  0.93529700  1
  C  220  1  0.36461600  0.52409900  0.91861700  1
  C  221  1  0.32760200  0.53300900  0.90049900  1
  C  222  1  0.25133300  0.55066900  0.85786300  1
  C  223  1  0.24871700  0.59519300  0.85771200  1
  C  224  1  0.28622600  0.61236000  0.85436900  1
  C  225  1  0.28539000  0.63904200  0.83439200  1
  C  226  1  0.24739600  0.64916600  0.81682100  1
  C  227  1  0.20968800  0.63234400  0.82008500  1
  C  228  1  0.21031900  0.60582600  0.84024000  1
  C  229  1  0.21427700  0.53573200  0.85596500  1
  C  230  1  0.21451000  0.52805800  0.83670300  1
  C  231  1  0.25130500  0.53539100  0.81824400  1
  C  232  1  0.28829200  0.55035100  0.82010900  1
  C  233  1  0.28827400  0.55786400  0.83944200  1
  C  250  1  0.90913300  0.04754600  0.47845100  1
  C  251  1  0.91654200  0.03067500  0.46802900  1
  C  252  1  0.95355300  0.01230100  0.47688800  1
  C  253  1  0.98402100  0.01093500  0.49658900  1
  C  254  1  0.97731000  0.02768800  0.50732500  1
  C  255  1  0.93978600  0.04573800  0.49815000  1
  C  257  1  0.02137600  0.99259000  0.50569800  1
  C  258  1  0.06559600  0.00026400  0.49327400  1
  C  259  1  0.10241100  0.98174400  0.50252900  1
  C  260  1  0.09560700  0.95596800  0.52375300  1
  C  261  1  0.05153800  0.94856300  0.53588300  1
  C  262  1  0.01410900  0.96667100  0.52708900  1
  C  278  1  0.90883100  0.47880500  0.47593800  1
  C  279  1  0.91622100  0.46837100  0.50323400  1
  C  280  1  0.95322100  0.47723700  0.51274800  1
  C  281  1  0.98371200  0.49694400  0.49441600  1
  C  282  1  0.97702700  0.50769100  0.46692600  1
  C  283  1  0.93949700  0.49852000  0.45804900  1
  C  285  1  0.02106600  0.50605400  0.50365400  1
  C  286  1  0.06526800  0.49362800  0.50840900  1
  C  287  1  0.10207700  0.50288000  0.51768100  1
  C  288  1  0.09528300  0.52409900  0.52224000  1
  C  289  1  0.05122800  0.53623300  0.51750800  1
  C  290  1  0.01380500  0.52744200  0.50818500  1
  C  305  1  0.90938700  0.47633900  0.04726600  1
  C  306  1  0.91682700  0.50363300  0.03041300  1
  C  307  1  0.95388100  0.51314900  0.01204900  1
  C  308  1  0.98436000  0.49481600  0.01067600  1
  C  309  1  0.97762000  0.46732500  0.02741100  1
  C  310  1  0.94005400  0.45845000  0.04545000  1
  C  312  1  0.02174600  0.50405200  0.99233400  1
  C  313  1  0.06594800  0.50879400  0.00001300  1
  C  314  1  0.10279100  0.51806000  0.98149500  1
  C  315  1  0.09603200  0.52262200  0.95571400  1
  C  316  1  0.05197700  0.51790300  0.94830600  1
  C  317  1  0.01452000  0.50858700  0.96641400  1
  C  333  1  0.40906600  0.95424700  0.52261200  1
  C  334  1  0.41648300  0.97110500  0.53304600  1
  C  335  1  0.45351500  0.98947700  0.52418500  1
  C  336  1  0.48400700  0.99084500  0.50447800  1
  C  337  1  0.47729000  0.97410500  0.49373000  1
  C  338  1  0.43973200  0.95606600  0.50289900  1
  C  340  1  0.52139500  0.00918200  0.49537500  1
  C  341  1  0.56557200  0.00150400  0.50782000  1
  C  342  1  0.60241600  0.02001700  0.49857400  1
  C  343  1  0.59568100  0.04578900  0.47734100  1
  C  344  1  0.55165000  0.05319700  0.46518900  1
  C  345  1  0.51419300  0.03509700  0.47397400  1
  C  361  1  0.40872800  0.52296200  0.52510400  1
  C  362  1  0.41617000  0.53338900  0.49781100  1
  C  363  1  0.45320500  0.52452900  0.48830000  1
  C  364  1  0.48365900  0.50482300  0.50663800  1
  C  365  1  0.47691000  0.49407600  0.53412700  1
  C  366  1  0.43936600  0.50325400  0.54299700  1
  C  368  1  0.52104300  0.49571400  0.49740500  1
  C  369  1  0.60208800  0.49888600  0.48339300  1
  C  370  1  0.59531500  0.47766300  0.47883900  1
  C  371  1  0.55125300  0.46553200  0.48356000  1
  C  372  1  0.51380300  0.47432300  0.49287600  1
  C  387  1  0.40949100  0.52546500  0.95379200  1
  C  388  1  0.41686300  0.49816800  0.97065300  1
  C  389  1  0.45384300  0.48864000  0.98904100  1
  C  390  1  0.48433500  0.50696500  0.99042100  1
  C  391  1  0.47767000  0.53445600  0.97367600  1
  C  392  1  0.44015700  0.54334400  0.95562100  1
  C  394  1  0.52166300  0.49771600  0.00877900  1
  C  395  1  0.56587900  0.49295500  0.00112100  1
  C  396  1  0.60267000  0.48368600  0.01965200  1
  C  397  1  0.59583800  0.47913500  0.04542700  1
  C  398  1  0.55176500  0.48387000  0.05281600  1
  C  399  1  0.51436400  0.49319200  0.03469500  1
  C  415  1  0.74983100  0.20451900  0.32612900  1
  C  416  1  0.70832500  0.21900600  0.31548600  1
  C  417  1  0.70735000  0.24212900  0.29044300  1
  C  418  1  0.74907200  0.25104100  0.27553600  1
  C  419  1  0.79081500  0.23637800  0.28533400  1
  C  420  1  0.79045800  0.21319800  0.31035900  1
  C  422  1  0.75016100  0.27628800  0.25233000  1
  C  423  1  0.75340300  0.29911200  0.25488200  1
  C  424  1  0.75252900  0.32425000  0.23195100  1
  C  425  1  0.74918400  0.32704700  0.20665300  1
  C  426  1  0.74743100  0.30422700  0.20433100  1
  C  427  1  0.74746700  0.27874900  0.22698600  1
  C  443  1  0.74947100  0.32642900  0.47142600  1
  C  444  1  0.70797300  0.31576400  0.46759700  1
  C  445  1  0.70703200  0.29074200  0.46947000  1
  C  446  1  0.74875900  0.27585600  0.47543900  1
  C  447  1  0.79047900  0.28566700  0.48031500  1
  C  448  1  0.79010000  0.31068000  0.47849900  1
  C  450  1  0.74987600  0.25266600  0.47337300  1
  C  451  1  0.75316000  0.25524300  0.44798700  1
  C  452  1  0.75233600  0.23232500  0.44575600  1
  C  453  1  0.74901600  0.20701400  0.46824600  1
  C  454  1  0.74725000  0.20466600  0.49340000  1
  C  455  1  0.74719600  0.22731000  0.49624200  1
  C  471  1  0.74955400  0.47173500  0.20412700  1
  C  472  1  0.70801300  0.46790500  0.21860000  1
  C  473  1  0.70697900  0.46982000  0.24172600  1
  C  474  1  0.74867700  0.47579800  0.25065400  1
  C  475  1  0.79045400  0.48065300  0.23600500  1
  C  476  1  0.79015700  0.47881400  0.21282000  1
  C  478  1  0.74971500  0.47373300  0.27591300  1
  C  479  1  0.75292400  0.44834700  0.29872200  1
  C  480  1  0.75204800  0.44611600  0.32387200  1
  C  481  1  0.74873800  0.46860500  0.32669300  1
  C  482  1  0.74701100  0.49375700  0.30388600  1
  C  483  1  0.74704800  0.49660300  0.27839900  1
  C  499  1  0.24969900  0.79729700  0.67497900  1
  C  500  1  0.20821100  0.78278700  0.68566200  1
  C  501  1  0.20728800  0.75964300  0.71068700  1
  C  502  1  0.24902300  0.75075100  0.72556100  1
  C  503  1  0.29073400  0.76545800  0.71573500  1
  C  504  1  0.29033700  0.78865200  0.69071800  1
  C  506  1  0.25015900  0.72549600  0.74875500  1
  C  507  1  0.25344400  0.70268500  0.74618200  1
  C  508  1  0.25261200  0.67753900  0.76910300  1
  C  509  1  0.24929100  0.67472400  0.79441000  1
  C  510  1  0.24752900  0.69753100  0.79675500  1
  C  511  1  0.24747600  0.72301500  0.77410900  1
  C  527  1  0.24941300  0.67532300  0.52971200  1
  C  528  1  0.20792900  0.68598600  0.53356400  1
  C  529  1  0.20698500  0.71102600  0.53165000  1
  C  530  1  0.24872700  0.72591200  0.52565200  1
  C  531  1  0.29044800  0.71609800  0.52077700  1
  C  532  1  0.29005800  0.69107300  0.52261700  1
  C  534  1  0.24985200  0.74911000  0.52770800  1
  C  535  1  0.25313400  0.74654100  0.55308900  1
  C  536  1  0.25230200  0.76946400  0.55531000  1
  C  537  1  0.24896400  0.79476800  0.53282000  1
  C  538  1  0.24717000  0.79710700  0.50767300  1
  C  539  1  0.24716300  0.77446200  0.50483400  1
  C  555  1  0.24967100  0.53005300  0.79694300  1
  C  556  1  0.20809600  0.53386300  0.78252100  1
  C  557  1  0.20703000  0.53198700  0.75937400  1
  C  558  1  0.24870300  0.52602900  0.75039200  1
  C  559  1  0.29049400  0.52116300  0.76501200  1
  C  560  1  0.29023900  0.52297800  0.78821000  1
  C  562  1  0.24968500  0.52808400  0.72513700  1
  C  563  1  0.25285200  0.55346800  0.70231600  1
  C  564  1  0.25191800  0.55568700  0.67717300  1
  C  565  1  0.24860500  0.53318900  0.67436800  1
  C  566  1  0.24696100  0.50804000  0.69718300  1
  C  567  1  0.24701300  0.50520800  0.72266400  1
  C  583  1  0.56524800  0.32023900  0.15102000  1
  C  586  1  0.63240600  0.87631000  0.12694100  1
  C  587  1  0.66376400  0.87814300  0.10756690  1
  C  588  1  0.70020900  0.89665800  0.09882093  1
  C  589  1  0.70568800  0.91420880  0.10873220  1
  C  590  1  0.67468300  0.91151980  0.12879920  1
  C  591  1  0.63828400  0.89298000  0.13764500  1
  C  593  1  0.79676600  0.91528580  0.10878320  1
  C  594  1  0.80379500  0.89801800  0.13614300  1
  C  595  1  0.84106200  0.88003500  0.14537900  1
  C  596  1  0.87188000  0.87814400  0.12756300  1
  C  597  1  0.86429500  0.89482200  0.10025493  1
  C  598  1  0.82731600  0.91296680  0.09103120  1
  C  599  1  0.75118600  0.95568480  0.06601720  1
  C  600  1  0.74844900  0.95579280  0.11040920  1
  C  601  1  0.78599300  0.95915680  0.12419120  1
  C  602  1  0.78517000  0.97915180  0.13086920  1
  C  603  1  0.74715300  0.99670675  0.12345825  1
  C  604  1  0.70943800  0.99344475  0.10991025  1
  C  605  1  0.71008000  0.97329380  0.10354020  1
  C  606  1  0.71418200  0.95762180  0.04914420  1
  C  607  1  0.71451500  0.97689280  0.02221413  1
  C  608  1  0.75136100  0.99532075  0.01113525  1
  C  609  1  0.78832600  0.99339275  0.02798925  1
  C  610  1  0.78820000  0.97405480  0.05483320  1
  C  627  1  0.63203700  0.28099700  0.12754600  1
  C  628  1  0.66339700  0.26164800  0.14508500  1
  C  629  1  0.69985500  0.25291000  0.13531600  1
  C  630  1  0.70535200  0.26280000  0.10785600  1
  C  631  1  0.67432700  0.28283600  0.09048000  1
  C  632  1  0.63791800  0.29167700  0.10017300  1
  C  634  1  0.79643200  0.26285900  0.10672100  1
  C  635  1  0.80349800  0.29022000  0.09662600  1
  C  636  1  0.84077600  0.29946100  0.10536200  1
  C  637  1  0.87158200  0.28165000  0.12505700  1
  C  638  1  0.86397400  0.25434300  0.13568300  1
  C  639  1  0.82698400  0.24511400  0.12677400  1
  C  640  1  0.75081900  0.22008600  0.10910300  1
  C  641  1  0.74814400  0.26446600  0.06460000  1
  C  642  1  0.78566700  0.27828800  0.04743100  1
  C  643  1  0.78483300  0.28500400  0.02074600  1
  C  644  1  0.74684900  0.27755700  0.01061200  1
  C  645  1  0.70917400  0.26394500  0.02745300  1
  C  646  1  0.70978900  0.25758200  0.05397200  1
  C  647  1  0.71382200  0.20320100  0.12407200  1
  C  648  1  0.71414800  0.17626500  0.13175100  1
  C  649  1  0.75099900  0.16518300  0.12441200  1
  C  650  1  0.78794900  0.18205100  0.10944500  1
  C  651  1  0.78782900  0.20890000  0.10191800  1
  C  668  1  0.63252100  0.28158900  0.72222100  1
  C  669  1  0.66386700  0.29913800  0.72403400  1
  C  670  1  0.70028700  0.28938000  0.74254800  1
  C  671  1  0.70576400  0.26192100  0.76011900  1
  C  672  1  0.67476300  0.24453700  0.75745000  1
  C  673  1  0.63837800  0.25421800  0.73891993  1
  C  675  1  0.79684100  0.26083200  0.76120700  1
  C  676  1  0.80395000  0.25075400  0.74392893  1
  C  677  1  0.84127000  0.25950100  0.72596490  1
  C  678  1  0.87208000  0.27919100  0.72410800  1
  C  679  1  0.86443000  0.28980300  0.74079800  1
  C  680  1  0.82739600  0.28088000  0.75892400  1
  C  681  1  0.75111600  0.26317600  0.80160000  1
  C  682  1  0.74852800  0.21867900  0.80170200  1
  C  683  1  0.78607900  0.20153900  0.80504500  1
  C  684  1  0.78524900  0.17484700  0.82499993  1
  C  685  1  0.74726800  0.16469400  0.84259700  1
  C  686  1  0.70954900  0.18149700  0.83936600  1
  C  687  1  0.71015600  0.20801900  0.81921500  1
  C  688  1  0.71408500  0.27812400  0.80351400  1
  C  689  1  0.71435400  0.28581000  0.82276700  1
  C  690  1  0.75115200  0.27847200  0.84120400  1
  C  691  1  0.78812500  0.26351700  0.83931600  1
  C  692  1  0.78807500  0.25599600  0.81998800  1
  C  709  1  0.13231100  0.74964300  0.19088690  1
  C  710  1  0.16364700  0.74782200  0.21024890  1
  C  711  1  0.20008600  0.72931200  0.21898990  1
  C  712  1  0.20557400  0.71174800  0.20909190  1
  C  713  1  0.17459400  0.71443300  0.18903090  1
  C  714  1  0.13819600  0.73296300  0.18019290  1
  C  716  1  0.29666400  0.71069300  0.20902790  1
  C  717  1  0.30371200  0.72797200  0.18166590  1
  C  718  1  0.34099100  0.74596100  0.17242190  1
  C  719  1  0.37179700  0.74784700  0.19023090  1
  C  720  1  0.36418800  0.73116400  0.21753890  1
  C  721  1  0.32719800  0.71301600  0.22677090  1
  C  722  1  0.25103700  0.67029800  0.25179790  1
  C  723  1  0.24836500  0.67017800  0.20741300  1
  C  724  1  0.28588800  0.66684100  0.19358700  1
  C  725  1  0.28507200  0.64685700  0.18689400  1
  C  726  1  0.24707200  0.62927900  0.19432600  1
  C  727  1  0.20937500  0.63251300  0.20791900  1
  C  728  1  0.20999200  0.65266900  0.21428200  1
  C  729  1  0.21402300  0.66835200  0.26868690  1
  C  730  1  0.21433600  0.64907600  0.29561690  1
  C  731  1  0.25120400  0.63067800  0.30668890  1
  C  732  1  0.28815900  0.63259900  0.28981490  1
  C  733  1  0.28803700  0.65192800  0.26296890  1
  C  750  1  0.13198000  0.34497000  0.19025900  1
  C  751  1  0.16335800  0.36432800  0.17271900  1
  C  752  1  0.19979000  0.37307100  0.18248800  1
  C  753  1  0.20523600  0.36317800  0.20994900  1
  C  754  1  0.17421700  0.34312200  0.22732500  1
  C  755  1  0.13782700  0.33428000  0.21763300  1
  C  757  1  0.29632600  0.36311700  0.21106600  1
  C  758  1  0.30333600  0.33575600  0.22114400  1
  C  759  1  0.34063200  0.32650900  0.21241700  1
  C  760  1  0.37145900  0.34431900  0.19270900  1
  C  761  1  0.36389200  0.37162800  0.18208600  1
  C  762  1  0.32688800  0.38086000  0.19099400  1
  C  763  1  0.25073400  0.40588900  0.20868600  1
  C  764  1  0.24798800  0.36151200  0.25319500  1
  C  765  1  0.28549400  0.34767500  0.27034900  1
  C  766  1  0.28465400  0.34096300  0.29703200  1
  C  767  1  0.24669200  0.34842500  0.30717800  1
  C  768  1  0.20902300  0.36202900  0.29035900  1
  C  769  1  0.20961900  0.36837300  0.26384500  1
  C  770  1  0.21373700  0.42277100  0.19374900  1
  C  771  1  0.21406100  0.44969900  0.18610300  1
  C  772  1  0.25092200  0.46077600  0.19342900  1
  C  773  1  0.28786300  0.44391100  0.20837200  1
  C  774  1  0.28773100  0.41706600  0.21588200  1
  C  791  1  0.13275700  0.34437200  0.59565390  1
  C  792  1  0.16410000  0.32682600  0.59382890  1
  C  793  1  0.20052200  0.33658900  0.57529390  1
  C  794  1  0.20599500  0.36404600  0.55771590  1
  C  795  1  0.17502200  0.38143100  0.56040490  1
  C  796  1  0.13863500  0.37174300  0.57895790  1
  C  798  1  0.29708200  0.36518000  0.55655490  1
  C  799  1  0.30415800  0.37526700  0.57382490  1
  C  800  1  0.34145800  0.36653000  0.59178190  1
  C  801  1  0.37224000  0.34682400  0.59365990  1
  C  802  1  0.36461600  0.33619900  0.57697990  1
  C  803  1  0.32760200  0.34510900  0.55886190  1
  C  804  1  0.25133300  0.36276900  0.51622600  1
  C  805  1  0.24871700  0.40729300  0.51607490  1
  C  806  1  0.28622600  0.42446000  0.51273190  1
  C  807  1  0.28539000  0.45114200  0.49275490  1
  C  808  1  0.24739600  0.46126600  0.47518390  1
  C  809  1  0.20968800  0.44444400  0.47844790  1
  C  810  1  0.21031900  0.41792600  0.49860290  1
  C  811  1  0.21427700  0.34783200  0.51432800  1
  C  812  1  0.21451000  0.34015800  0.49506600  1
  C  813  1  0.25130500  0.34749100  0.47660700  1
  C  814  1  0.28829200  0.36245100  0.47847200  1
  C  815  1  0.28827400  0.36996400  0.49780500  1
  C  832  1  0.90913300  0.85964600  0.13681393  1
  C  833  1  0.91654200  0.84277500  0.12639190  1
  C  834  1  0.95355300  0.82440100  0.13525090  1
  C  835  1  0.98402100  0.82303500  0.15495190  1
  C  836  1  0.97731000  0.83978800  0.16568800  1
  C  837  1  0.93978600  0.85783800  0.15651300  1
  C  839  1  0.02137600  0.80469000  0.16406090  1
  C  840  1  0.06559600  0.81236400  0.15163690  1
  C  841  1  0.10241100  0.79384400  0.16089190  1
  C  842  1  0.09560700  0.76806800  0.18211590  1
  C  843  1  0.05153800  0.76066300  0.19424590  1
  C  844  1  0.01410900  0.77877100  0.18545190  1
  C  860  1  0.90883100  0.29090500  0.13430100  1
  C  861  1  0.91622100  0.28047100  0.16159700  1
  C  862  1  0.95322100  0.28933700  0.17111100  1
  C  863  1  0.98371200  0.30904400  0.15277900  1
  C  864  1  0.97702700  0.31979100  0.12528900  1
  C  865  1  0.93949700  0.31062000  0.11641200  1
  C  867  1  0.02106600  0.31815400  0.16201700  1
  C  868  1  0.06526800  0.30572800  0.16677200  1
  C  869  1  0.10207700  0.31498000  0.17604400  1
  C  870  1  0.09528300  0.33619900  0.18060300  1
  C  871  1  0.05122800  0.34833300  0.17587100  1
  C  872  1  0.01380500  0.33954200  0.16654800  1
  C  887  1  0.90938700  0.28843900  0.70562893  1
  C  888  1  0.91682700  0.31573300  0.68877600  1
  C  889  1  0.95388100  0.32524900  0.67041193  1
  C  890  1  0.98436000  0.30691600  0.66903890  1
  C  891  1  0.97762000  0.27942500  0.68577390  1
  C  892  1  0.94005400  0.27055000  0.70381290  1
  C  894  1  0.02174600  0.31615200  0.65069690  1
  C  895  1  0.06594800  0.32089400  0.65837590  1
  C  896  1  0.10279100  0.33016000  0.63985790  1
  C  897  1  0.09603200  0.33472200  0.61407690  1
  C  898  1  0.05197700  0.33000300  0.60666890  1
  C  899  1  0.01452000  0.32068700  0.62477690  1
  C  915  1  0.40906600  0.76634700  0.18097490  1
  C  916  1  0.41648300  0.78320500  0.19140890  1
  C  917  1  0.45351500  0.80157700  0.18254790  1
  C  918  1  0.48400700  0.80294500  0.16284090  1
  C  919  1  0.47729000  0.78620500  0.15209290  1
  C  920  1  0.43973200  0.76816600  0.16126190  1
  C  922  1  0.52139500  0.82128200  0.15373790  1
  C  923  1  0.56557200  0.81360400  0.16618290  1
  C  924  1  0.60241600  0.83211700  0.15693690  1
  C  925  1  0.59568100  0.85788900  0.13570393  1
  C  926  1  0.55165000  0.86529700  0.12355190  1
  C  927  1  0.51419300  0.84719700  0.13233690  1
  C  943  1  0.40872800  0.33506200  0.18346700  1
  C  944  1  0.41617000  0.34548900  0.15617400  1
  C  945  1  0.45320500  0.33662900  0.14666300  1
  C  946  1  0.48365900  0.31692300  0.16500100  1
  C  947  1  0.47691000  0.30617600  0.19249000  1
  C  948  1  0.43936600  0.31535400  0.20136000  1
  C  950  1  0.52104300  0.30781400  0.15576800  1
  C  951  1  0.60208800  0.31098600  0.14175600  1
  C  952  1  0.59531500  0.28976300  0.13720200  1
  C  953  1  0.55125300  0.27763200  0.14192300  1
  C  954  1  0.51380300  0.28642300  0.15123900  1
  C  969  1  0.40949100  0.33756500  0.61215490  1
  C  970  1  0.41686300  0.31026800  0.62901590  1
  C  971  1  0.45384300  0.30074000  0.64740390  1
  C  972  1  0.48433500  0.31906500  0.64878390  1
  C  973  1  0.47767000  0.34655600  0.63203890  1
  C  974  1  0.44015700  0.35544400  0.61398390  1
  C  976  1  0.52166300  0.30981600  0.66714190  1
  C  977  1  0.56587900  0.30505500  0.65948390  1
  C  978  1  0.60267000  0.29578600  0.67801490  1
  C  979  1  0.59583800  0.29123500  0.70378993  1
  C  980  1  0.55176500  0.29597000  0.71117900  1
  C  981  1  0.51436400  0.30529200  0.69305793  1
  C  997  1  0.74983100  0.01661900  0.98449200  1
  C  998  1  0.70832500  0.03110600  0.97384900  1
  C  999  1  0.70735000  0.05422900  0.94880600  1
  C  1000  1  0.74907200  0.06314100  0.93389893  1
  C  1001  1  0.79081500  0.04847800  0.94369693  1
  C  1002  1  0.79045800  0.02529800  0.96872193  1
  C  1004  1  0.75016100  0.08838800  0.91069293  1
  C  1005  1  0.75340300  0.11121200  0.91324500  1
  C  1006  1  0.75252900  0.13635000  0.89031400  1
  C  1007  1  0.74918400  0.13914700  0.86501600  1
  C  1008  1  0.74743100  0.11632700  0.86269390  1
  C  1009  1  0.74746700  0.09084900  0.88534890  1
  C  1025  1  0.74947100  0.13852900  0.12978900  1
  C  1026  1  0.70797300  0.12786400  0.12596000  1
  C  1027  1  0.70703200  0.10284200  0.12783300  1
  C  1028  1  0.74875900  0.08795600  0.13380200  1
  C  1029  1  0.79047900  0.09776700  0.13867800  1
  C  1030  1  0.79010000  0.12278000  0.13686200  1
  C  1032  1  0.74987600  0.06476600  0.13173600  1
  C  1033  1  0.75316000  0.06734300  0.10635000  1
  C  1034  1  0.75233600  0.04442500  0.10411900  1
  C  1035  1  0.74901600  0.01911400  0.12660900  1
  C  1036  1  0.74725000  0.01676600  0.15176300  1
  C  1037  1  0.74719600  0.03941000  0.15460500  1
  C  1053  1  0.74955400  0.28383500  0.86249000  1
  C  1054  1  0.70801300  0.28000500  0.87696300  1
  C  1055  1  0.70697900  0.28192000  0.90008900  1
  C  1056  1  0.74867700  0.28789800  0.90901700  1
  C  1057  1  0.79045400  0.29275300  0.89436800  1
  C  1058  1  0.79015700  0.29091400  0.87118300  1
  C  1060  1  0.74971500  0.28583300  0.93427600  1
  C  1061  1  0.75292400  0.26044700  0.95708500  1
  C  1062  1  0.75204800  0.25821600  0.98223500  1
  C  1063  1  0.74873800  0.28070500  0.98505600  1
  C  1064  1  0.74701100  0.30585700  0.96224900  1
  C  1065  1  0.74704800  0.30870300  0.93676200  1
  C  1081  1  0.24969900  0.60939700  0.33334190  1
  C  1082  1  0.20821100  0.59488700  0.34402490  1
  C  1083  1  0.20728800  0.57174300  0.36904990  1
  C  1084  1  0.24902300  0.56285100  0.38392390  1
  C  1085  1  0.29073400  0.57755800  0.37409790  1
  C  1086  1  0.29033700  0.60075200  0.34908090  1
  C  1088  1  0.25015900  0.53759600  0.40711790  1
  C  1089  1  0.25344400  0.51478500  0.40454490  1
  C  1090  1  0.25261200  0.48963900  0.42746590  1
  C  1091  1  0.24929100  0.48682400  0.45277290  1
  C  1092  1  0.24752900  0.50963100  0.45511790  1
  C  1093  1  0.24747600  0.53511500  0.43247190  1
  C  1109  1  0.24941300  0.48742300  0.18807500  1
  C  1110  1  0.20792900  0.49808600  0.19192700  1
  C  1111  1  0.20698500  0.52312600  0.19001300  1
  C  1112  1  0.24872700  0.53801200  0.18401500  1
  C  1113  1  0.29044800  0.52819800  0.17914000  1
  C  1114  1  0.29005800  0.50317300  0.18098000  1
  C  1116  1  0.24985200  0.56121000  0.18607100  1
  C  1117  1  0.25313400  0.55864100  0.21145200  1
  C  1118  1  0.25230200  0.58156400  0.21367300  1
  C  1119  1  0.24896400  0.60686800  0.19118300  1
  C  1120  1  0.24717000  0.60920700  0.16603600  1
  C  1121  1  0.24716300  0.58656200  0.16319700  1
  C  1137  1  0.24967100  0.34215300  0.45530600  1
  C  1138  1  0.20809600  0.34596300  0.44088400  1
  C  1139  1  0.20703000  0.34408700  0.41773700  1
  C  1140  1  0.24870300  0.33812900  0.40875500  1
  C  1141  1  0.29049400  0.33326300  0.42337500  1
  C  1142  1  0.29023900  0.33507800  0.44657300  1
  C  1144  1  0.24968500  0.34018400  0.38350000  1
  C  1145  1  0.25285200  0.36556800  0.36067900  1
  C  1146  1  0.25191800  0.36778700  0.33553600  1
  C  1147  1  0.24860500  0.34528900  0.33273100  1
  C  1148  1  0.24696100  0.32014000  0.35554600  1
  C  1149  1  0.24701300  0.31730800  0.38102700  1
  N  3  1  0.46034400  0.53498000  0.46089200  1
  N  266  1  0.96967600  0.95935700  0.53919500  1
  N  267  1  0.07206900  0.02618400  0.47183100  1
  N  268  1  0.96065700  0.99533600  0.46644400  1
  N  269  1  0.00821000  0.02610800  0.52693500  1
  N  294  1  0.96939100  0.53954900  0.50339100  1
  N  295  1  0.07173100  0.47218900  0.50392700  1
  N  296  1  0.96029500  0.46678600  0.54015900  1
  N  297  1  0.00795600  0.52730500  0.44889700  1
  N  321  1  0.97010500  0.50380200  0.95909400  1
  N  322  1  0.07237600  0.50430800  0.02593700  1
  N  323  1  0.96101200  0.54055800  0.99509900  1
  N  324  1  0.00853100  0.44929700  0.02582200  1
  N  349  1  0.46979600  0.04241600  0.46185100  1
  N  350  1  0.57197900  0.97558500  0.52927300  1
  N  351  1  0.46062300  0.00643300  0.53463700  1
  N  352  1  0.50822100  0.97568400  0.47411800  1
  N  376  1  0.46937800  0.46221600  0.49766300  1
  N  377  1  0.57169000  0.52958200  0.49713600  1
  N  378  1  0.50780300  0.47446100  0.55215900  1
  N  403  1  0.46992800  0.49799400  0.04199400  1
  N  404  1  0.57238300  0.49742900  0.97520400  1
  N  405  1  0.46089800  0.46123000  0.00600400  1
  N  406  1  0.50859400  0.55247500  0.97526900  1
  N  431  1  0.74431000  0.25574200  0.22485600  1
  N  432  1  0.75768600  0.29649700  0.28021600  1
  N  433  1  0.66572300  0.25684300  0.28036100  1
  N  434  1  0.83241100  0.24566800  0.27041300  1
  N  459  1  0.74398200  0.22515400  0.52138900  1
  N  460  1  0.75742900  0.28059100  0.42527900  1
  N  461  1  0.66542600  0.28065200  0.46481800  1
  N  462  1  0.83209000  0.27078100  0.48590800  1
  N  487  1  0.74392600  0.52175200  0.25540500  1
  N  488  1  0.75718600  0.42563800  0.29608500  1
  N  489  1  0.66531800  0.46519400  0.25643100  1
  N  490  1  0.83202800  0.48626500  0.24531000  1
  N  515  1  0.24426000  0.74600900  0.77625900  1
  N  516  1  0.25771600  0.70532300  0.72083600  1
  N  517  1  0.16569200  0.74488300  0.72079400  1
  N  518  1  0.33235100  0.75619000  0.73061200  1
  N  543  1  0.24396800  0.77660900  0.47969200  1
  N  544  1  0.25740900  0.72119700  0.57579700  1
  N  545  1  0.16537800  0.72112500  0.53629500  1
  N  546  1  0.33206500  0.73099800  0.51514200  1
  N  571  1  0.24391900  0.48006300  0.74566700  1
  N  572  1  0.25713100  0.57618500  0.70493800  1
  N  573  1  0.16535100  0.53662000  0.74470500  1
  N  574  1  0.33204800  0.51557600  0.75565400  1
  N  585  1  0.46034400  0.34708000  0.11925500  1
  N  848  1  0.96967600  0.77145700  0.19755790  1
  N  849  1  0.07206900  0.83828400  0.13019390  1
  N  850  1  0.96065700  0.80743600  0.12480690  1
  N  851  1  0.00821000  0.83820800  0.18529800  1
  N  876  1  0.96939100  0.35164900  0.16175400  1
  N  877  1  0.07173100  0.28428900  0.16229000  1
  N  878  1  0.96029500  0.27888600  0.19852200  1
  N  879  1  0.00795600  0.33940500  0.10726000  1
  N  903  1  0.97010500  0.31590200  0.61745690  1
  N  904  1  0.07237600  0.31640800  0.68430000  1
  N  905  1  0.96101200  0.35265800  0.65346200  1
  N  906  1  0.00853100  0.26139700  0.68418490  1
  N  931  1  0.46979600  0.85451600  0.12021390  1
  N  932  1  0.57197900  0.78768500  0.18763590  1
  N  933  1  0.46062300  0.81853300  0.19300000  1
  N  934  1  0.50822100  0.78778400  0.13248090  1
  N  958  1  0.46937800  0.27431600  0.15602600  1
  N  959  1  0.57169000  0.34168200  0.15549900  1
  N  960  1  0.50780300  0.28656100  0.21052200  1
  N  985  1  0.46992800  0.31009400  0.70035700  1
  N  986  1  0.57238300  0.30952900  0.63356690  1
  N  987  1  0.46089800  0.27333000  0.66436690  1
  N  988  1  0.50859400  0.36457500  0.63363193  1
  N  1013  1  0.74431000  0.06784200  0.88321890  1
  N  1014  1  0.75768600  0.10859700  0.93857900  1
  N  1015  1  0.66572300  0.06894300  0.93872400  1
  N  1016  1  0.83241100  0.05776800  0.92877590  1
  N  1041  1  0.74398200  0.03725400  0.17975200  1
  N  1042  1  0.75742900  0.09269100  0.08364200  1
  N  1043  1  0.66542600  0.09275200  0.12318100  1
  N  1044  1  0.83209000  0.08288100  0.14427100  1
  N  1069  1  0.74392600  0.33385200  0.91376800  1
  N  1070  1  0.75718600  0.23773800  0.95444800  1
  N  1071  1  0.66531800  0.27729400  0.91479400  1
  N  1072  1  0.83202800  0.29836500  0.90367300  1
  N  1097  1  0.24426000  0.55810900  0.43462193  1
  N  1098  1  0.25771600  0.51742300  0.37919900  1
  N  1099  1  0.16569200  0.55698300  0.37915690  1
  N  1100  1  0.33235100  0.56829000  0.38897490  1
  N  1125  1  0.24396800  0.58870900  0.13805500  1
  N  1126  1  0.25740900  0.53329700  0.23416000  1
  N  1127  1  0.16537800  0.53322500  0.19465800  1
  N  1128  1  0.33206500  0.54309800  0.17350500  1
  N  1153  1  0.24391900  0.29216300  0.40403000  1
  N  1154  1  0.25713100  0.38828500  0.36330100  1
  N  1155  1  0.16535100  0.34872000  0.40306800  1
  N  1156  1  0.33204800  0.32767600  0.41401700  1
  O  2  1  0.92579700  0.47098200  0.55077000  1
  O  270  1  0.95255400  0.94064500  0.53725500  1
  O  271  1  0.02910000  0.04757500  0.51940200  1
  O  272  1  0.92616900  0.98052100  0.47065300  1
  O  273  1  0.08335400  0.02600300  0.45118100  1
  O  274  1  0.97161300  0.95275200  0.56316100  1
  O  275  1  0.98712600  0.01984700  0.54808100  1
  O  276  1  0.96836100  0.00816500  0.44205700  1
  O  277  1  0.10275300  0.03835500  0.47684200  1
  O  298  1  0.95223800  0.53760400  0.52404300  1
  O  299  1  0.02884600  0.51978100  0.43495400  1
  O  300  1  0.08297100  0.45153700  0.52475700  1
  O  301  1  0.97137000  0.56351600  0.48603300  1
  O  302  1  0.98689800  0.54845100  0.43401900  1
  O  303  1  0.96798300  0.44240000  0.55170900  1
  O  304  1  0.10244300  0.47720300  0.48674800  1
  O  325  1  0.95300400  0.52445900  0.94038500  1
  O  326  1  0.02937200  0.43534300  0.04729300  1
  O  327  1  0.92655600  0.55117800  0.98027700  1
  O  328  1  0.08365000  0.52513500  0.02576100  1
  O  329  1  0.97206700  0.48644500  0.95248400  1
  O  330  1  0.98746600  0.43443000  0.01953900  1
  O  331  1  0.96867500  0.55210100  0.00794400  1
  O  332  1  0.10304600  0.48712300  0.03810300  1
  O  353  1  0.45266900  0.06113500  0.46377900  1
  O  354  1  0.52907700  0.95421200  0.48164500  1
  O  355  1  0.42615200  0.02125100  0.53043800  1
  O  356  1  0.58320100  0.97577400  0.54992200  1
  O  357  1  0.47180600  0.04901400  0.43788700  1
  O  358  1  0.48717400  0.98195900  0.45296900  1
  O  359  1  0.46829100  0.99359500  0.55902400  1
  O  360  1  0.60268100  0.96340500  0.52427900  1
  O  379  1  0.45227800  0.46415800  0.47701100  1
  O  380  1  0.52866200  0.48198500  0.56610300  1
  O  381  1  0.42588000  0.53078100  0.45027400  1
  O  382  1  0.58297800  0.55023100  0.47630700  1
  O  383  1  0.47132200  0.43824900  0.51502400  1
  O  384  1  0.48671100  0.45331700  0.56703600  1
  O  385  1  0.46804700  0.55936600  0.44934400  1
  O  386  1  0.60236400  0.52457100  0.51432000  1
  O  407  1  0.45276600  0.47734600  0.06070200  1
  O  408  1  0.52950900  0.56641100  0.95380600  1
  O  409  1  0.42638100  0.45063100  0.02080500  1
  O  410  1  0.58364700  0.47659600  0.97539000  1
  O  411  1  0.47188300  0.51535800  0.04859600  1
  O  412  1  0.48753000  0.56735800  0.98153300  1
  O  413  1  0.46859800  0.44967300  0.99317300  1
  O  414  1  0.60309900  0.51460600  0.96304400  1
  O  435  1  0.70702100  0.25527300  0.21386400  1
  O  436  1  0.84862100  0.22915800  0.26477300  1
  O  437  1  0.63476500  0.24340200  0.27735700  1
  O  438  1  0.72476600  0.30765600  0.28498000  1
  O  439  1  0.77799100  0.25406500  0.21205300  1
  O  440  1  0.86299100  0.25079100  0.28255300  1
  O  441  1  0.65010500  0.26483900  0.29518800  1
  O  442  1  0.79553200  0.30595600  0.28250200  1
  O  463  1  0.70669600  0.21411800  0.53285000  1
  O  464  1  0.84829700  0.26512700  0.50805700  1
  O  465  1  0.63444100  0.27760600  0.48127300  1
  O  466  1  0.72452600  0.28534000  0.40936100  1
  O  467  1  0.77766400  0.21237900  0.53586100  1
  O  468  1  0.86266400  0.28295800  0.46863300  1
  O  469  1  0.64983400  0.29549900  0.44200000  1
  O  470  1  0.79529000  0.28291800  0.41352200  1
  O  491  1  0.70665200  0.53322400  0.25495500  1
  O  492  1  0.84827800  0.50841000  0.22880800  1
  O  493  1  0.63438500  0.48164900  0.24298300  1
  O  494  1  0.72425000  0.40972400  0.30724200  1
  O  495  1  0.77762600  0.53621300  0.25373300  1
  O  496  1  0.86259500  0.46899100  0.25044100  1
  O  497  1  0.64969100  0.44237600  0.26441700  1
  O  498  1  0.79502100  0.41387700  0.30552800  1
  O  519  1  0.20697100  0.74642300  0.78729900  1
  O  520  1  0.34854500  0.77269800  0.73625600  1
  O  521  1  0.13470200  0.75827900  0.72384700  1
  O  522  1  0.22481300  0.69414200  0.71609300  1
  O  523  1  0.27794100  0.74771800  0.78903000  1
  O  524  1  0.36292700  0.75110300  0.71843100  1
  O  525  1  0.15009400  0.73689600  0.70596000  1
  O  526  1  0.29557700  0.69590100  0.71850600  1
  O  547  1  0.20668200  0.78762000  0.46825000  1
  O  548  1  0.34826600  0.73663300  0.49298900  1
  O  549  1  0.13440900  0.72414600  0.51985700  1
  O  550  1  0.22450600  0.71643900  0.59173400  1
  O  551  1  0.27764800  0.78940100  0.46520200  1
  O  552  1  0.36263800  0.71884000  0.53240100  1
  O  553  1  0.14976300  0.70630100  0.55912200  1
  O  554  1  0.29527000  0.71888900  0.58753200  1
  O  575  1  0.20664300  0.46857100  0.74615900  1
  O  576  1  0.34830800  0.49343200  0.77212400  1
  O  577  1  0.13442300  0.52015200  0.75816800  1
  O  578  1  0.22417500  0.59208200  0.69381700  1
  O  579  1  0.27761700  0.46561400  0.74731200  1
  O  580  1  0.36262000  0.53285700  0.75050500  1
  O  581  1  0.14973500  0.55943100  0.73675900  1
  O  582  1  0.29495000  0.58796500  0.69544400  1
  O  584  1  0.92579700  0.28308200  0.20913300  1
  O  852  1  0.95255400  0.75274500  0.19561790  1
  O  853  1  0.02910000  0.85967500  0.17776500  1
  O  854  1  0.92616900  0.79262100  0.12901590  1
  O  855  1  0.08335400  0.83810300  0.10954390  1
  O  856  1  0.97161300  0.76485200  0.22152390  1
  O  857  1  0.98712600  0.83194700  0.20644400  1
  O  858  1  0.96836100  0.82026500  0.10041990  1
  O  859  1  0.10275300  0.85045500  0.13520490  1
  O  880  1  0.95223800  0.34970400  0.18240600  1
  O  881  1  0.02884600  0.33188100  0.09331700  1
  O  882  1  0.08297100  0.26363700  0.18312000  1
  O  883  1  0.97137000  0.37561600  0.14439600  1
  O  884  1  0.98689800  0.36055100  0.09238200  1
  O  885  1  0.96798300  0.25450000  0.21007200  1
  O  886  1  0.10244300  0.28930300  0.14511100  1
  O  907  1  0.95300400  0.33655900  0.59874790  1
  O  908  1  0.02937200  0.24744300  0.70565590  1
  O  909  1  0.92655600  0.36327800  0.63864000  1
  O  910  1  0.08365000  0.33723500  0.68412400  1
  O  911  1  0.97206700  0.29854500  0.61084690  1
  O  912  1  0.98746600  0.24653000  0.67790190  1
  O  913  1  0.96867500  0.36420100  0.66630700  1
  O  914  1  0.10304600  0.29922300  0.69646593  1
  O  935  1  0.45266900  0.87323500  0.12214193  1
  O  936  1  0.52907700  0.76631200  0.14000790  1
  O  937  1  0.42615200  0.83335100  0.18880100  1
  O  938  1  0.58320100  0.78787400  0.20828493  1
  O  939  1  0.47180600  0.86111400  0.09624990  1
  O  940  1  0.48717400  0.79405900  0.11133190  1
  O  941  1  0.46829100  0.80569500  0.21738700  1
  O  942  1  0.60268100  0.77550500  0.18264190  1
  O  961  1  0.45227800  0.27625800  0.13537400  1
  O  962  1  0.52866200  0.29408500  0.22446600  1
  O  963  1  0.42588000  0.34288100  0.10863700  1
  O  964  1  0.58297800  0.36233100  0.13467000  1
  O  965  1  0.47132200  0.25034900  0.17338700  1
  O  966  1  0.48671100  0.26541700  0.22539900  1
  O  967  1  0.46804700  0.37146600  0.10770700  1
  O  968  1  0.60236400  0.33667100  0.17268300  1
  O  989  1  0.45276600  0.28944600  0.71906500  1
  O  990  1  0.52950900  0.37851100  0.61216893  1
  O  991  1  0.42638100  0.26273100  0.67916790  1
  O  992  1  0.58364700  0.28869600  0.63375290  1
  O  993  1  0.47188300  0.32745800  0.70695900  1
  O  994  1  0.48753000  0.37945800  0.63989600  1
  O  995  1  0.46859800  0.26177300  0.65153590  1
  O  996  1  0.60309900  0.32670600  0.62140690  1
  O  1017  1  0.70702100  0.06737300  0.87222690  1
  O  1018  1  0.84862100  0.04125800  0.92313590  1
  O  1019  1  0.63476500  0.05550200  0.93571993  1
  O  1020  1  0.72476600  0.11975600  0.94334300  1
  O  1021  1  0.77799100  0.06616500  0.87041590  1
  O  1022  1  0.86299100  0.06289100  0.94091600  1
  O  1023  1  0.65010500  0.07693900  0.95355100  1
  O  1024  1  0.79553200  0.11805600  0.94086500  1
  O  1045  1  0.70669600  0.02621800  0.19121300  1
  O  1046  1  0.84829700  0.07722700  0.16642000  1
  O  1047  1  0.63444100  0.08970600  0.13963600  1
  O  1048  1  0.72452600  0.09744000  0.06772400  1
  O  1049  1  0.77766400  0.02447900  0.19422400  1
  O  1050  1  0.86266400  0.09505800  0.12699600  1
  O  1051  1  0.64983400  0.10759900  0.10036300  1
  O  1052  1  0.79529000  0.09501800  0.07188500  1
  O  1073  1  0.70665200  0.34532400  0.91331800  1
  O  1074  1  0.84827800  0.32051000  0.88717100  1
  O  1075  1  0.63438500  0.29374900  0.90134600  1
  O  1076  1  0.72425000  0.22182400  0.96560500  1
  O  1077  1  0.77762600  0.34831300  0.91209600  1
  O  1078  1  0.86259500  0.28109100  0.90880400  1
  O  1079  1  0.64969100  0.25447600  0.92278000  1
  O  1080  1  0.79502100  0.22597700  0.96389100  1
  O  1101  1  0.20697100  0.55852300  0.44566200  1
  O  1102  1  0.34854500  0.58479800  0.39461890  1
  O  1103  1  0.13470200  0.57037900  0.38220990  1
  O  1104  1  0.22481300  0.50624200  0.37445600  1
  O  1105  1  0.27794100  0.55981800  0.44739300  1
  O  1106  1  0.36292700  0.56320300  0.37679390  1
  O  1107  1  0.15009400  0.54899600  0.36432290  1
  O  1108  1  0.29557700  0.50800100  0.37686900  1
  O  1129  1  0.20668200  0.59972000  0.12661300  1
  O  1130  1  0.34826600  0.54873300  0.15135200  1
  O  1131  1  0.13440900  0.53624600  0.17822000  1
  O  1132  1  0.22450600  0.52853900  0.25009700  1
  O  1133  1  0.27764800  0.60150100  0.12356500  1
  O  1134  1  0.36263800  0.53094000  0.19076400  1
  O  1135  1  0.14976300  0.51840100  0.21748500  1
  O  1136  1  0.29527000  0.53098900  0.24589500  1
  O  1157  1  0.20664300  0.28067100  0.40452200  1
  O  1158  1  0.34830800  0.30553200  0.43048700  1
  O  1159  1  0.13442300  0.33225200  0.41653100  1
  O  1160  1  0.22417500  0.40418200  0.35218000  1
  O  1161  1  0.27761700  0.27771400  0.40567500  1
  O  1162  1  0.36262000  0.34495700  0.40886800  1
  O  1163  1  0.14973500  0.37153100  0.39512200  1
  O  1164  1  0.29495000  0.40006500  0.35380700  1
