# generated using pymatgen
data_H7(C3N)4
_symmetry_space_group_name_H-M   'P 1'
_cell_length_a   26.64690000
_cell_length_b   56.15120000
_cell_length_c   95.88670000
_cell_angle_alpha   90.00000000
_cell_angle_beta   90.00000000
_cell_angle_gamma   90.00000000
_symmetry_Int_Tables_number   1
_chemical_formula_structural   H7(C3N)4
_chemical_formula_sum   'H448 C768 N256'
_cell_volume   143470.99374478
_cell_formula_units_Z   64
loop_
 _symmetry_equiv_pos_site_id
 _symmetry_equiv_pos_as_xyz
  1  'x, y, z'
loop_
 _atom_site_type_symbol
 _atom_site_label
 _atom_site_symmetry_multiplicity
 _atom_site_fract_x
 _atom_site_fract_y
 _atom_site_fract_z
 _atom_site_occupancy
  H  7  1  0.25424800  0.28969800  0.29652200  1
  H  8  1  0.24814400  0.24630700  0.33260700  1
  H  9  1  0.34701400  0.30378700  0.33082400  1
  H  16  1  0.17204900  0.27583000  0.29408700  1
  H  17  1  0.10707300  0.20818800  0.29043600  1
  H  18  1  0.22938000  0.21750900  0.31701400  1
  H  29  1  0.25537800  0.46886100  0.46277900  1
  H  30  1  0.24858400  0.51222300  0.42669200  1
  H  31  1  0.34751300  0.45475300  0.42834600  1
  H  38  1  0.17315800  0.48277400  0.46533300  1
  H  39  1  0.10869200  0.55052100  0.46908200  1
  H  40  1  0.23048800  0.54101800  0.44234800  1
  H  51  1  0.50610000  0.46677400  0.29545000  1
  H  52  1  0.50814900  0.50792400  0.33246900  1
  H  53  1  0.41298200  0.44915900  0.32900100  1
  H  60  1  0.58761000  0.48092200  0.29372400  1
  H  61  1  0.64977100  0.54921900  0.29098100  1
  H  62  1  0.52782800  0.53775600  0.31745400  1
  H  73  1  0.50777300  0.29198000  0.46349600  1
  H  74  1  0.50936100  0.25097800  0.42641800  1
  H  75  1  0.41376600  0.30953100  0.43012800  1
  H  82  1  0.58926100  0.27791800  0.46514300  1
  H  83  1  0.65243200  0.20979400  0.46753700  1
  H  84  1  0.52981300  0.22113700  0.44129700  1
  H  95  1  0.75509300  0.71946900  0.71280100  1
  H  96  1  0.76143500  0.76271500  0.67665800  1
  H  97  1  0.66258300  0.70522700  0.67846600  1
  H  104  1  0.83735000  0.73333300  0.71522400  1
  H  105  1  0.90223900  0.80100200  0.71883300  1
  H  106  1  0.77999200  0.79158700  0.69224300  1
  H  117  1  0.75257400  0.53936700  0.54638700  1
  H  118  1  0.76086800  0.49659500  0.58270200  1
  H  119  1  0.66110100  0.55367200  0.58088600  1
  H  126  1  0.83264400  0.52518200  0.54293800  1
  H  127  1  0.90048600  0.45810600  0.54002800  1
  H  128  1  0.78155700  0.46776100  0.56767400  1
  H  139  1  0.50307900  0.54239100  0.71384200  1
  H  140  1  0.50116100  0.50122400  0.67683000  1
  H  141  1  0.59629800  0.55999400  0.68031000  1
  H  148  1  0.42158300  0.52822800  0.71555600  1
  H  149  1  0.35937700  0.45993700  0.71827300  1
  H  150  1  0.48141400  0.47139700  0.69183300  1
  H  161  1  0.50197900  0.71666900  0.54574400  1
  H  162  1  0.50084200  0.75764400  0.58283100  1
  H  163  1  0.59592600  0.69891000  0.57909200  1
  H  170  1  0.42061500  0.73094300  0.54410600  1
  H  171  1  0.35822300  0.79923900  0.54175700  1
  H  172  1  0.48078300  0.78753100  0.56796200  1
  H  183  1  0.75469500  0.29022000  0.79650000  1
  H  184  1  0.74903200  0.24683200  0.83259200  1
  H  185  1  0.84741100  0.30449800  0.83079100  1
  H  192  1  0.67260700  0.27612600  0.79406900  1
  H  193  1  0.60841900  0.20829700  0.79047100  1
  H  194  1  0.73072200  0.21799400  0.81700000  1
  H  205  1  0.75546000  0.46892400  0.96286600  1
  H  206  1  0.74896100  0.51231700  0.92678600  1
  H  207  1  0.84793300  0.45487200  0.92849800  1
  H  214  1  0.67329000  0.48284100  0.96539400  1
  H  215  1  0.60864400  0.55055700  0.96908900  1
  H  216  1  0.73062100  0.54109700  0.94241600  1
  H  227  1  0.00467000  0.46773400  0.79534900  1
  H  228  1  0.00857200  0.50833200  0.83257800  1
  H  229  1  0.91266800  0.44989500  0.82905200  1
  H  236  1  0.08424500  0.48215400  0.79271600  1
  H  237  1  0.14956500  0.54981400  0.79074100  1
  H  238  1  0.03057100  0.53815600  0.81816100  1
  H  249  1  0.00768900  0.29196900  0.96359000  1
  H  250  1  0.00948900  0.25111900  0.92645400  1
  H  251  1  0.91393600  0.30968700  0.93019400  1
  H  258  1  0.08927300  0.27795300  0.96518900  1
  H  259  1  0.15247100  0.20983000  0.96754400  1
  H  260  1  0.02975700  0.22119900  0.94133400  1
  H  271  1  0.25469300  0.71894200  0.21282100  1
  H  272  1  0.26058200  0.76218200  0.17667100  1
  H  273  1  0.16221000  0.70451600  0.17850200  1
  H  280  1  0.33683700  0.73303600  0.21524000  1
  H  281  1  0.40094300  0.80089000  0.21879100  1
  H  282  1  0.27869700  0.79109700  0.19225100  1
  H  293  1  0.25247000  0.53930500  0.04630500  1
  H  294  1  0.26048300  0.49648800  0.08260600  1
  H  295  1  0.16067700  0.55354200  0.08074700  1
  H  302  1  0.33252000  0.52512900  0.04288900  1
  H  303  1  0.40053000  0.45809000  0.04000900  1
  H  304  1  0.28139900  0.46767700  0.06759600  1
  H  315  1  0.00452100  0.54143900  0.21395000  1
  H  316  1  0.00077600  0.50081800  0.17672900  1
  H  317  1  0.09665400  0.55926200  0.18027100  1
  H  324  1  0.92494700  0.52702200  0.21656200  1
  H  325  1  0.85952900  0.45938300  0.21851400  1
  H  326  1  0.97866400  0.47100400  0.19113600  1
  H  337  1  0.00205200  0.71668200  0.04565700  1
  H  338  1  0.00071200  0.75750000  0.08280400  1
  H  339  1  0.09573800  0.69874800  0.07903000  1
  H  346  1  0.92060100  0.73092200  0.04406200  1
  H  347  1  0.85821100  0.79922300  0.04175900  1
  H  348  1  0.98084100  0.78746700  0.06793900  1
  H  359  1  0.75776500  0.78913600  0.29639200  1
  H  360  1  0.74946000  0.74558400  0.33238800  1
  H  361  1  0.84911500  0.80271700  0.33099800  1
  H  368  1  0.67841200  0.77502100  0.29262000  1
  H  369  1  0.60894100  0.70840900  0.28938500  1
  H  370  1  0.72689000  0.71713600  0.31744100  1
  H  381  1  0.75585100  0.96901500  0.46265400  1
  H  382  1  0.74913300  0.01302300  0.42683500  1
  H  383  1  0.84768900  0.95538200  0.42810800  1
  H  390  1  0.67411100  0.98280300  0.46539900  1
  H  391  1  0.60881700  0.05025000  0.46961000  1
  H  392  1  0.72967500  0.04155900  0.44246100  1
  H  403  1  0.00580100  0.96688300  0.29549900  1
  H  404  1  0.00734700  0.00861400  0.33229600  1
  H  405  1  0.91248800  0.94969900  0.32906700  1
  H  412  1  0.08684900  0.98102000  0.29363200  1
  H  413  1  0.14966800  0.04911000  0.29058300  1
  H  414  1  0.02831000  0.03822200  0.31734200  1
  H  425  1  0.00393900  0.79142300  0.46394100  1
  H  426  1  0.00812300  0.75011100  0.42698200  1
  H  427  1  0.91186900  0.80845900  0.43013600  1
  H  434  1  0.08285600  0.77711700  0.46693700  1
  H  435  1  0.15044400  0.71001600  0.46905700  1
  H  436  1  0.03215900  0.72070300  0.44128400  1
  H  447  1  0.25161400  0.22003100  0.71293400  1
  H  448  1  0.26015500  0.26343000  0.67687900  1
  H  449  1  0.16052100  0.20628600  0.67829600  1
  H  456  1  0.33102400  0.23414700  0.71669400  1
  H  457  1  0.40040300  0.30078800  0.71988100  1
  H  458  1  0.28249800  0.29195700  0.69181800  1
  H  469  1  0.25212800  0.03924200  0.54649700  1
  H  470  1  0.26033700  0.99585100  0.58256000  1
  H  471  1  0.16085100  0.05305100  0.58108900  1
  H  478  1  0.33156100  0.02514800  0.54279700  1
  H  479  1  0.40100700  0.95852200  0.53966900  1
  H  480  1  0.28281500  0.96731800  0.56764200  1
  H  491  1  0.00342100  0.04227800  0.71378700  1
  H  492  1  0.00195000  0.00054600  0.67699000  1
  H  493  1  0.09681800  0.05945100  0.68023400  1
  H  500  1  0.92239100  0.02813800  0.71564900  1
  H  501  1  0.85941600  0.96007500  0.71864700  1
  H  502  1  0.98088600  0.97094200  0.69192600  1
  H  513  1  0.00582800  0.21724600  0.54530100  1
  H  514  1  0.00211200  0.25851500  0.58227800  1
  H  515  1  0.09784100  0.19998000  0.57908200  1
  H  522  1  0.92706000  0.23176600  0.54231100  1
  H  523  1  0.86022700  0.29904600  0.54025400  1
  H  524  1  0.97843500  0.28799100  0.56799700  1
  H  535  1  0.25819500  0.78966300  0.79636500  1
  H  536  1  0.25033900  0.74611600  0.83236800  1
  H  537  1  0.34952500  0.80342800  0.83095200  1
  H  544  1  0.17896000  0.77533900  0.79259800  1
  H  545  1  0.11017400  0.70855200  0.78942500  1
  H  546  1  0.22817200  0.71761100  0.81742700  1
  H  557  1  0.25592400  0.96907900  0.96273200  1
  H  558  1  0.24949300  0.01312100  0.92692200  1
  H  559  1  0.34807800  0.95549400  0.92824500  1
  H  566  1  0.17420500  0.98286500  0.96543900  1
  H  567  1  0.10879400  0.05029100  0.96961900  1
  H  568  1  0.22983800  0.04164300  0.94253000  1
  H  579  1  0.50441100  0.96781100  0.79538700  1
  H  580  1  0.50781800  0.00894700  0.83241800  1
  H  581  1  0.41209200  0.95042400  0.82908600  1
  H  588  1  0.58336900  0.98225400  0.79255200  1
  H  589  1  0.65015000  0.04955000  0.79053000  1
  H  590  1  0.53153600  0.03850700  0.81815100  1
  H  601  1  0.50382900  0.79140300  0.96402700  1
  H  602  1  0.50825700  0.75026100  0.92700500  1
  H  603  1  0.41204700  0.80862500  0.93019100  1
  H  610  1  0.58280600  0.77711300  0.96699700  1
  H  611  1  0.65035600  0.71000000  0.96906500  1
  H  612  1  0.53208000  0.72076700  0.94129700  1
  H  623  1  0.75114100  0.21951300  0.21296200  1
  H  624  1  0.75924300  0.26291000  0.17690000  1
  H  625  1  0.66007600  0.20559200  0.17834000  1
  H  632  1  0.83043700  0.23383100  0.21671500  1
  H  633  1  0.89913900  0.30064700  0.21984700  1
  H  634  1  0.78118600  0.29149200  0.19183600  1
  H  645  1  0.75206800  0.03917400  0.04641400  1
  H  646  1  0.75998600  0.99577300  0.08247800  1
  H  647  1  0.66048100  0.05295700  0.08094400  1
  H  654  1  0.83143200  0.02504600  0.04272900  1
  H  655  1  0.90099700  0.95844000  0.03967100  1
  H  656  1  0.78268300  0.96724600  0.06759900  1
  H  667  1  0.50479000  0.04134500  0.21389600  1
  H  668  1  0.50148000  0.00021800  0.17686300  1
  H  669  1  0.59717600  0.05874700  0.18021500  1
  H  676  1  0.42586100  0.02687500  0.21673000  1
  H  677  1  0.35902500  0.95958900  0.21870100  1
  H  678  1  0.47770600  0.97065300  0.19110800  1
  H  689  1  0.50594900  0.21726400  0.04520900  1
  H  690  1  0.50197900  0.25837000  0.08224600  1
  H  691  1  0.59767100  0.19982300  0.07902100  1
  H  698  1  0.42710400  0.23175500  0.04224900  1
  H  699  1  0.36028500  0.29904500  0.04023600  1
  H  700  1  0.47850900  0.28792800  0.06797100  1
  H  710  1  0.37287700  0.41113000  0.28826300  1
  H  711  1  0.32099000  0.37672600  0.28351000  1
  H  714  1  0.29970600  0.33303500  0.28982800  1
  H  716  1  0.46126100  0.41094100  0.31843200  1
  H  722  1  0.37401800  0.34744600  0.47082800  1
  H  723  1  0.32211900  0.38181100  0.47564600  1
  H  726  1  0.30102000  0.42559600  0.46944300  1
  H  728  1  0.46230500  0.34778800  0.44065800  1
  H  734  1  0.63624600  0.59803200  0.72107000  1
  H  735  1  0.68814300  0.63242300  0.72584200  1
  H  738  1  0.70950800  0.67611300  0.71952500  1
  H  740  1  0.54807100  0.59821700  0.69085400  1
  H  746  1  0.63531500  0.66095900  0.53840700  1
  H  747  1  0.68680700  0.62647200  0.53356300  1
  H  750  1  0.70740200  0.58262600  0.53972900  1
  H  752  1  0.54691900  0.66075000  0.56854800  1
  H  758  1  0.87208500  0.41190800  0.78823400  1
  H  759  1  0.82043200  0.37741200  0.78350900  1
  H  762  1  0.79964600  0.33365700  0.78981400  1
  H  764  1  0.96120300  0.41177100  0.81825400  1
  H  770  1  0.87384500  0.34745000  0.97088900  1
  H  771  1  0.82192600  0.38181200  0.97569600  1
  H  774  1  0.80097800  0.42562800  0.96953100  1
  H  776  1  0.96253100  0.34787700  0.94081200  1
  H  782  1  0.13736700  0.59719900  0.22103900  1
  H  783  1  0.18904900  0.63167500  0.22577600  1
  H  786  1  0.20972800  0.67547100  0.21952500  1
  H  788  1  0.04823800  0.59739600  0.19103600  1
  H  794  1  0.13547000  0.66094800  0.03835300  1
  H  795  1  0.18698600  0.62646400  0.03352200  1
  H  798  1  0.20742700  0.58258800  0.03965200  1
  H  800  1  0.04666700  0.66065800  0.06839800  1
  H  806  1  0.87354100  0.91074400  0.28842400  1
  H  807  1  0.82277000  0.87598900  0.28362900  1
  H  810  1  0.80207000  0.83236400  0.29007600  1
  H  812  1  0.96072600  0.91139400  0.31884700  1
  H  818  1  0.87229200  0.84753700  0.47090600  1
  H  819  1  0.82135500  0.88227200  0.47561500  1
  H  822  1  0.80056500  0.92586700  0.46907700  1
  H  824  1  0.95999000  0.84683000  0.44056800  1
  H  830  1  0.13562800  0.09840400  0.72090500  1
  H  831  1  0.18640800  0.13314800  0.72572100  1
  H  834  1  0.20718800  0.17677200  0.71928100  1
  H  836  1  0.04864000  0.09776400  0.69043800  1
  H  842  1  0.13705300  0.16089500  0.53832100  1
  H  843  1  0.18758400  0.12604200  0.53357600  1
  H  846  1  0.20788700  0.08238800  0.54007500  1
  H  848  1  0.04924900  0.16171400  0.56862800  1
  H  854  1  0.37267900  0.91152200  0.78838500  1
  H  855  1  0.32212700  0.87667800  0.78362700  1
  H  858  1  0.30196600  0.83298600  0.79005300  1
  H  860  1  0.46071000  0.91220400  0.81863700  1
  H  866  1  0.37212000  0.84754400  0.97096100  1
  H  867  1  0.32115300  0.88227600  0.97565900  1
  H  870  1  0.30051500  0.92590100  0.96915400  1
  H  872  1  0.46022900  0.84692500  0.94071600  1
  H  878  1  0.63646000  0.09763500  0.22094200  1
  H  879  1  0.68702100  0.13246800  0.22571900  1
  H  882  1  0.70725200  0.17616200  0.21930100  1
  H  884  1  0.54861100  0.09696200  0.19064900  1
  H  890  1  0.63723300  0.16089000  0.03825700  1
  H  891  1  0.68779000  0.12604200  0.03352200  1
  H  894  1  0.70795000  0.08235800  0.03998600  1
  H  896  1  0.54904300  0.16162400  0.06847700  1
  H  902  1  0.90723400  0.24661800  0.25732000  1
  H  903  1  0.95519400  0.24207200  0.27839800  1
  H  906  1  0.03866900  0.23969400  0.28911500  1
  H  908  1  0.96450900  0.27027800  0.22495300  1
  H  914  1  0.90923400  0.51253800  0.50253500  1
  H  915  1  0.95694700  0.51729500  0.48143500  1
  H  918  1  0.04010600  0.51927300  0.47057900  1
  H  920  1  0.96634800  0.48789900  0.53466500  1
  H  926  1  0.84956100  0.51356900  0.25651000  1
  H  927  1  0.80226100  0.51800900  0.27770400  1
  H  930  1  0.71944500  0.51885300  0.28882300  1
  H  932  1  0.79271400  0.48805200  0.22456900  1
  H  938  1  0.85179800  0.24550300  0.50212300  1
  H  939  1  0.80461800  0.24146100  0.48087600  1
  H  942  1  0.72169300  0.24038300  0.46977600  1
  H  944  1  0.79420000  0.26970200  0.53432400  1
  H  950  1  0.10211900  0.76261100  0.75198200  1
  H  951  1  0.05416400  0.76715100  0.73090300  1
  H  954  1  0.97068600  0.76952800  0.72018400  1
  H  956  1  0.04483700  0.73896300  0.78434900  1
  H  962  1  0.15960400  0.49554100  0.75275600  1
  H  963  1  0.20692300  0.49105800  0.73156700  1
  H  966  1  0.28971700  0.49027700  0.72044000  1
  H  968  1  0.21639600  0.52114900  0.78468200  1
  H  974  1  0.15844400  0.76379700  0.50712000  1
  H  975  1  0.20560500  0.76781500  0.52837400  1
  H  978  1  0.28859300  0.76886600  0.53947600  1
  H  980  1  0.21614000  0.73957700  0.47492000  1
  H  986  1  0.40814500  0.24645100  0.75728000  1
  H  987  1  0.45610500  0.24185300  0.77835700  1
  H  990  1  0.53961200  0.23952700  0.78906900  1
  H  992  1  0.46544600  0.27022100  0.72492900  1
  H  998  1  0.40922500  0.51251000  0.00252900  1
  H  999  1  0.45695700  0.51725400  0.98143000  1
  H  1002  1  0.54014500  0.51925000  0.97057800  1
  H  1004  1  0.46636500  0.48791700  0.03466800  1
  H  1010  1  0.35184500  0.24550900  0.00209500  1
  H  1011  1  0.30467800  0.24150400  0.98084400  1
  H  1014  1  0.22174200  0.24048100  0.96973500  1
  H  1016  1  0.29424400  0.26967900  0.03430600  1
  H  1022  1  0.60127700  0.76273200  0.25200200  1
  H  1023  1  0.55331300  0.76731300  0.23092400  1
  H  1026  1  0.46977600  0.76966200  0.22020900  1
  H  1028  1  0.54393900  0.73899600  0.28435300  1
  H  1034  1  0.65840600  0.76379900  0.00714300  1
  H  1035  1  0.70557100  0.76782800  0.02839500  1
  H  1038  1  0.78856400  0.76882700  0.03950300  1
  H  1040  1  0.71606400  0.73956300  0.97494300  1
  H  1046  1  0.40893300  0.01145200  0.50211300  1
  H  1047  1  0.45710700  0.01537100  0.48103300  1
  H  1050  1  0.54074500  0.01809300  0.47046200  1
  H  1052  1  0.46617800  0.98928300  0.53482000  1
  H  1058  1  0.34986100  0.01272500  0.25683400  1
  H  1059  1  0.30220400  0.01666100  0.27800300  1
  H  1062  1  0.21898800  0.01804800  0.28889700  1
  H  1064  1  0.29281000  0.98903800  0.22444600  1
  H  1070  1  0.65928400  0.99650800  0.75240900  1
  H  1071  1  0.70692600  0.99262600  0.73123300  1
  H  1074  1  0.79015900  0.99118400  0.72034500  1
  H  1076  1  0.71639800  0.02009100  0.78481000  1
  H  1082  1  0.90892600  0.01150300  0.00210100  1
  H  1083  1  0.95712700  0.01549700  0.98103000  1
  H  1086  1  0.04075000  0.01814800  0.97046200  1
  H  1088  1  0.96609200  0.98921700  0.03479800  1
  H  1094  1  0.17823200  0.09149700  0.32278600  1
  H  1095  1  0.22077900  0.12940500  0.32234400  1
  H  1098  1  0.21422300  0.17347100  0.31884800  1
  H  1100  1  0.04293400  0.08492200  0.31800800  1
  H  1106  1  0.18185300  0.66696800  0.43620400  1
  H  1107  1  0.22355300  0.62885400  0.43681800  1
  H  1110  1  0.21580000  0.58489500  0.44033200  1
  H  1112  1  0.04669500  0.67436200  0.44111800  1
  H  1118  1  0.57340600  0.66522600  0.32099500  1
  H  1119  1  0.53167500  0.62709500  0.32090300  1
  H  1122  1  0.53997200  0.58272900  0.31884600  1
  H  1124  1  0.70965800  0.67168500  0.31828400  1
  H  1130  1  0.57486200  0.09353100  0.44037500  1
  H  1131  1  0.53310100  0.13162900  0.43997700  1
  H  1134  1  0.54195000  0.17592600  0.44001400  1
  H  1136  1  0.71162800  0.08686200  0.44089600  1
  H  1142  1  0.83094700  0.91763400  0.68646100  1
  H  1143  1  0.78845500  0.87971300  0.68690000  1
  H  1146  1  0.79507100  0.83564800  0.69040000  1
  H  1148  1  0.96623900  0.92425400  0.69125900  1
  H  1154  1  0.82937100  0.34191600  0.57321900  1
  H  1155  1  0.78812100  0.38014200  0.57283200  1
  H  1158  1  0.79629400  0.42406300  0.56953200  1
  H  1160  1  0.96445300  0.33426600  0.56828200  1
  H  1166  1  0.43584000  0.34394300  0.68821100  1
  H  1167  1  0.47753000  0.38208300  0.68830800  1
  H  1170  1  0.46921700  0.42644000  0.69040700  1
  H  1172  1  0.29962000  0.33744300  0.69097900  1
  H  1178  1  0.43737900  0.91509100  0.56974700  1
  H  1179  1  0.47857300  0.87685100  0.56990500  1
  H  1182  1  0.46912300  0.83260600  0.56941000  1
  H  1184  1  0.30063100  0.92215900  0.56885800  1
  H  1190  1  0.68117800  0.09210800  0.82355000  1
  H  1191  1  0.72316800  0.13014600  0.82287800  1
  H  1194  1  0.71607500  0.17407700  0.81897800  1
  H  1196  1  0.54604800  0.08500700  0.81850500  1
  H  1202  1  0.68175200  0.66700700  0.93618100  1
  H  1203  1  0.72349000  0.62890400  0.93680900  1
  H  1206  1  0.71580100  0.58495100  0.94035900  1
  H  1208  1  0.54660300  0.67438500  0.94112000  1
  H  1214  1  0.07533600  0.66547200  0.82117300  1
  H  1215  1  0.03405500  0.62723600  0.82129900  1
  H  1218  1  0.04278600  0.58292100  0.81943500  1
  H  1220  1  0.21149100  0.67223000  0.81836800  1
  H  1226  1  0.07490300  0.09357200  0.94040900  1
  H  1227  1  0.03311000  0.13166200  0.94000400  1
  H  1230  1  0.04191900  0.17596300  0.94003900  1
  H  1232  1  0.21167900  0.08692900  0.94093300  1
  H  1238  1  0.32806800  0.91701400  0.18568300  1
  H  1239  1  0.28613200  0.87896300  0.18635200  1
  H  1242  1  0.29328000  0.83503200  0.19025800  1
  H  1244  1  0.46319000  0.92415600  0.19073900  1
  H  1250  1  0.32946300  0.34187500  0.07322700  1
  H  1251  1  0.28817400  0.38009000  0.07282500  1
  H  1254  1  0.29627700  0.42400600  0.06948800  1
  H  1256  1  0.46453000  0.33424200  0.06826000  1
  H  1262  1  0.93387100  0.34371000  0.18804400  1
  H  1263  1  0.97511800  0.38195500  0.18792400  1
  H  1266  1  0.96637400  0.42625800  0.18983600  1
  H  1268  1  0.79775000  0.33691200  0.19091100  1
  H  1274  1  0.93733100  0.91504600  0.06976300  1
  H  1275  1  0.97855900  0.87681400  0.06992200  1
  H  1278  1  0.96915100  0.83256500  0.06941400  1
  H  1280  1  0.80057600  0.92209200  0.06885100  1
  H  1286  1  0.36573300  0.29772000  0.40112600  1
  H  1287  1  0.31622200  0.30574600  0.38088900  1
  H  1290  1  0.30617500  0.29890200  0.35578800  1
  H  1292  1  0.45580100  0.24753400  0.40371600  1
  H  1298  1  0.36552800  0.46089000  0.35803100  1
  H  1299  1  0.31640200  0.45277400  0.37832600  1
  H  1302  1  0.30665900  0.45961100  0.40343000  1
  H  1304  1  0.45509200  0.51126100  0.35532000  1
  H  1310  1  0.64425100  0.71084700  0.60817400  1
  H  1311  1  0.69367800  0.70294900  0.62844700  1
  H  1314  1  0.70374700  0.71000000  0.65352300  1
  H  1316  1  0.55439000  0.76108700  0.60543000  1
  H  1322  1  0.64305700  0.54849300  0.65112200  1
  H  1323  1  0.69215500  0.55648400  0.63080500  1
  H  1326  1  0.70241500  0.54920500  0.60577000  1
  H  1328  1  0.55446900  0.49776200  0.65407000  1
  H  1334  1  0.86664800  0.29825400  0.90109200  1
  H  1335  1  0.81732100  0.30642300  0.88084100  1
  H  1338  1  0.80697800  0.29953300  0.85576400  1
  H  1340  1  0.95608800  0.24781100  0.90370200  1
  H  1346  1  0.86679400  0.46101300  0.85822700  1
  H  1347  1  0.81769600  0.45278100  0.87850700  1
  H  1350  1  0.80745500  0.45971300  0.90357100  1
  H  1352  1  0.95561800  0.51168900  0.85550400  1
  H  1358  1  0.14332700  0.71030400  0.10821300  1
  H  1359  1  0.19258100  0.70226500  0.12849700  1
  H  1362  1  0.20296900  0.70936600  0.15354900  1
  H  1364  1  0.05411300  0.76080700  0.10544800  1
  H  1370  1  0.14188800  0.54833800  0.15094200  1
  H  1371  1  0.19095500  0.55643600  0.13063700  1
  H  1374  1  0.20166800  0.54908000  0.10563800  1
  H  1376  1  0.05396900  0.49733400  0.15389900  1
  H  1382  1  0.86442200  0.79613300  0.40134300  1
  H  1383  1  0.81546000  0.80416500  0.38100600  1
  H  1386  1  0.80676500  0.79765200  0.35582600  1
  H  1388  1  0.95536000  0.74633000  0.40401500  1
  H  1394  1  0.86244100  0.96282600  0.35763300  1
  H  1395  1  0.81345200  0.95476000  0.37796900  1
  H  1398  1  0.80552200  0.96081900  0.40323000  1
  H  1400  1  0.95472500  0.01206800  0.35517500  1
  H  1406  1  0.14557400  0.21241200  0.60796300  1
  H  1407  1  0.19445600  0.20451200  0.62833600  1
  H  1410  1  0.20319000  0.21123900  0.65349000  1
  H  1412  1  0.05487000  0.26228300  0.60513500  1
  H  1418  1  0.14613200  0.04659800  0.65150600  1
  H  1419  1  0.19506600  0.05454100  0.63114600  1
  H  1422  1  0.20345600  0.04803500  0.60594400  1
  H  1424  1  0.05480700  0.99697200  0.65419700  1
  H  1430  1  0.36524500  0.79664100  0.90131000  1
  H  1431  1  0.31646300  0.80481200  0.88096000  1
  H  1434  1  0.30756000  0.79828300  0.85579400  1
  H  1436  1  0.45565800  0.74661500  0.90399100  1
  H  1442  1  0.36362400  0.96291000  0.85781500  1
  H  1443  1  0.31465700  0.95474600  0.87813600  1
  H  1446  1  0.30624100  0.96091700  0.90335900  1
  H  1448  1  0.45522700  0.01245400  0.85534500  1
  H  1454  1  0.64475300  0.21191900  0.10799300  1
  H  1455  1  0.69344200  0.20387800  0.12838000  1
  H  1458  1  0.70237000  0.21062300  0.15352200  1
  H  1460  1  0.55455900  0.26200400  0.10515300  1
  H  1466  1  0.64485500  0.04656200  0.15131100  1
  H  1467  1  0.69376800  0.05460900  0.13096600  1
  H  1470  1  0.70271900  0.04796700  0.10580900  1
  H  1472  1  0.55431500  0.99659900  0.15402300  1
  C  1  1  0.24490600  0.26491200  0.31320900  1
  C  2  1  0.26535100  0.28536000  0.30639400  1
  C  3  1  0.30230300  0.29983200  0.31280800  1
  C  4  1  0.31969400  0.29365700  0.32616500  1
  C  5  1  0.29984500  0.27407300  0.33346800  1
  C  6  1  0.26287300  0.26002300  0.32692700  1
  C  10  1  0.20752600  0.24958200  0.30676300  1
  C  11  1  0.17203000  0.25825800  0.29685200  1
  C  12  1  0.13456700  0.24343900  0.29099800  1
  C  13  1  0.13339400  0.21920700  0.29483300  1
  C  14  1  0.16707600  0.20978400  0.30461500  1
  C  15  1  0.20414100  0.22493900  0.31029600  1
  C  23  1  0.24571000  0.49361900  0.44609400  1
  C  24  1  0.26627000  0.47318000  0.45288500  1
  C  25  1  0.30310400  0.45871000  0.44641800  1
  C  26  1  0.32023500  0.46487000  0.43303300  1
  C  27  1  0.30025800  0.48445100  0.42575200  1
  C  28  1  0.26338800  0.49849200  0.43234500  1
  C  32  1  0.20853700  0.50897600  0.45260600  1
  C  33  1  0.17315700  0.50034400  0.46256200  1
  C  34  1  0.13592000  0.51522000  0.46848400  1
  C  35  1  0.13483700  0.53945600  0.46464600  1
  C  36  1  0.16842800  0.54883300  0.45482300  1
  C  37  1  0.20529400  0.53362600  0.44909200  1
  C  45  1  0.51382700  0.49038500  0.31276700  1
  C  46  1  0.49461200  0.47021700  0.30541200  1
  C  47  1  0.45920500  0.45447200  0.31142800  1
  C  48  1  0.44013700  0.45991000  0.32475700  1
  C  49  1  0.45744900  0.47958800  0.33238800  1
  C  50  1  0.49476600  0.49429600  0.32648300  1
  C  54  1  0.55088900  0.50634000  0.30671600  1
  C  55  1  0.58689700  0.49837100  0.29674000  1
  C  56  1  0.62376400  0.51371900  0.29108500  1
  C  57  1  0.62396300  0.53779000  0.29524800  1
  C  58  1  0.58982000  0.54651800  0.30513400  1
  C  59  1  0.55333200  0.53083700  0.31062400  1
  C  67  1  0.51531300  0.26843400  0.44613900  1
  C  68  1  0.49609500  0.28854400  0.45355000  1
  C  69  1  0.46046200  0.30425400  0.44760800  1
  C  70  1  0.44109400  0.29881300  0.43431200  1
  C  71  1  0.45839400  0.27919500  0.42662900  1
  C  72  1  0.49597500  0.26454100  0.43245000  1
  C  76  1  0.55266400  0.25253100  0.45209900  1
  C  77  1  0.58871300  0.26050000  0.46206400  1
  C  78  1  0.62591100  0.24521100  0.46760300  1
  C  79  1  0.62639900  0.22119200  0.46334600  1
  C  80  1  0.59215400  0.21245700  0.45349200  1
  C  81  1  0.55534700  0.22807700  0.44811100  1
  C  89  1  0.76453500  0.74418600  0.69608300  1
  C  90  1  0.74405200  0.72376600  0.70291700  1
  C  91  1  0.70715100  0.70926400  0.69650300  1
  C  92  1  0.68985800  0.71538000  0.68312700  1
  C  93  1  0.70975900  0.73493400  0.67580600  1
  C  94  1  0.74666800  0.74901800  0.68234700  1
  C  98  1  0.80186700  0.75954600  0.70252500  1
  C  99  1  0.83735300  0.75090000  0.71244600  1
  C  100  1  0.87479100  0.76574200  0.71829400  1
  C  101  1  0.87593600  0.78996600  0.71444200  1
  C  102  1  0.84225800  0.79936000  0.70464900  1
  C  103  1  0.80522200  0.78418000  0.69897300  1
  C  111  1  0.76311600  0.51481800  0.56315700  1
  C  112  1  0.74205200  0.53510900  0.55631500  1
  C  113  1  0.70524100  0.54959500  0.56277500  1
  C  114  1  0.68838700  0.54355600  0.57620300  1
  C  115  1  0.70873800  0.52412600  0.58353500  1
  C  116  1  0.74574100  0.51013200  0.57696600  1
  C  120  1  0.80055400  0.49950500  0.55666700  1
  C  121  1  0.83416400  0.50786500  0.54617000  1
  C  122  1  0.87143200  0.49310500  0.54016900  1
  C  123  1  0.87465200  0.46919600  0.54457200  1
  C  124  1  0.84270100  0.46002600  0.55487600  1
  C  125  1  0.80563100  0.47511400  0.56061700  1
  C  133  1  0.49541500  0.51876800  0.69652800  1
  C  134  1  0.51460000  0.53894400  0.70388300  1
  C  135  1  0.55002200  0.55468900  0.69787300  1
  C  136  1  0.56913500  0.54924400  0.68454900  1
  C  137  1  0.55186100  0.52955600  0.67692100  1
  C  138  1  0.51452500  0.51485100  0.68281800  1
  C  142  1  0.45833000  0.50281200  0.70256900  1
  C  143  1  0.42229600  0.51078000  0.71253800  1
  C  144  1  0.38540300  0.49543600  0.71818000  1
  C  145  1  0.38520400  0.47136700  0.71401200  1
  C  146  1  0.41937300  0.46263900  0.70413400  1
  C  147  1  0.45589100  0.47831800  0.69865700  1
  C  155  1  0.49470200  0.74021600  0.56310700  1
  C  156  1  0.51371400  0.72007400  0.55568900  1
  C  157  1  0.54922300  0.70429000  0.56162200  1
  C  158  1  0.56867700  0.70968400  0.57491500  1
  C  159  1  0.55157200  0.72933300  0.58260500  1
  C  160  1  0.51409700  0.74405800  0.57679400  1
  C  164  1  0.45752400  0.75621600  0.55715500  1
  C  165  1  0.42136600  0.74835500  0.54719300  1
  C  166  1  0.38433700  0.76375100  0.54166700  1
  C  167  1  0.38413400  0.78776700  0.54593700  1
  C  168  1  0.41850600  0.79639500  0.55578900  1
  C  169  1  0.45514100  0.78067000  0.56115300  1
  C  177  1  0.74562400  0.26541900  0.81319100  1
  C  178  1  0.76585600  0.28590900  0.80637200  1
  C  179  1  0.80268900  0.30045700  0.81278300  1
  C  180  1  0.82016600  0.29431600  0.82613700  1
  C  181  1  0.80050100  0.27469200  0.83344300  1
  C  182  1  0.76363800  0.26057500  0.82690900  1
  C  186  1  0.70841900  0.24999000  0.80675000  1
  C  187  1  0.67279800  0.25855700  0.79684300  1
  C  188  1  0.63549500  0.24362800  0.79100400  1
  C  189  1  0.63462100  0.21939500  0.79485400  1
  C  190  1  0.66845200  0.21007900  0.80463200  1
  C  191  1  0.70535700  0.22534500  0.81029200  1
  C  199  1  0.74593200  0.49370300  0.94618400  1
  C  200  1  0.76644100  0.47325800  0.95298300  1
  C  201  1  0.80334600  0.45880100  0.94653800  1
  C  202  1  0.82060500  0.46497900  0.93316800  1
  C  203  1  0.80067800  0.48456400  0.92588000  1
  C  204  1  0.76373100  0.49859000  0.93244800  1
  C  208  1  0.70868200  0.50904900  0.95267200  1
  C  209  1  0.67326700  0.50040800  0.96261500  1
  C  210  1  0.63596400  0.51527200  0.96851600  1
  C  211  1  0.63483900  0.53950300  0.96466700  1
  C  212  1  0.66846300  0.54888600  0.95485600  1
  C  213  1  0.70540200  0.53369300  0.94915000  1
  C  221  1  0.01346900  0.49113900  0.81274200  1
  C  222  1  0.99368700  0.47111100  0.80535700  1
  C  223  1  0.95839200  0.45533900  0.81139800  1
  C  224  1  0.93975600  0.46065700  0.82478600  1
  C  225  1  0.95748000  0.48021100  0.83244700  1
  C  226  1  0.99483900  0.49488000  0.82652800  1
  C  230  1  0.05071700  0.50705100  0.80668300  1
  C  231  1  0.08497300  0.49935600  0.79616900  1
  C  232  1  0.12181800  0.51460400  0.79041300  1
  C  233  1  0.12409300  0.53835000  0.79512300  1
  C  234  1  0.09159000  0.54686700  0.80549100  1
  C  235  1  0.05493700  0.53129100  0.81100800  1
  C  243  1  0.01530600  0.26849500  0.94620200  1
  C  244  1  0.99606200  0.28857500  0.95363400  1
  C  245  1  0.96048200  0.30431800  0.94769500  1
  C  246  1  0.94121200  0.29894000  0.93438200  1
  C  247  1  0.95855300  0.27935100  0.92668000  1
  C  248  1  0.99606600  0.26465900  0.93249900  1
  C  252  1  0.05263500  0.25257400  0.95215000  1
  C  253  1  0.08871000  0.26053800  0.96210700  1
  C  254  1  0.12592400  0.24524200  0.96762800  1
  C  255  1  0.12640600  0.22122600  0.96336500  1
  C  256  1  0.09212700  0.21250000  0.95351800  1
  C  257  1  0.05530200  0.22812500  0.94815000  1
  C  265  1  0.26386100  0.74367500  0.19609900  1
  C  266  1  0.24359200  0.72321200  0.20293700  1
  C  267  1  0.20680400  0.70863700  0.19652900  1
  C  268  1  0.18941700  0.71471900  0.18315700  1
  C  269  1  0.20913400  0.73431100  0.17583100  1
  C  270  1  0.24594100  0.74846200  0.18236500  1
  C  274  1  0.30101900  0.75913300  0.20253500  1
  C  275  1  0.33663200  0.75059900  0.21245300  1
  C  276  1  0.37390800  0.76555200  0.21828400  1
  C  277  1  0.37475900  0.78977500  0.21441500  1
  C  278  1  0.34093000  0.79905900  0.20462700  1
  C  279  1  0.30405700  0.78377000  0.19897300  1
  C  287  1  0.26287900  0.51473000  0.06306900  1
  C  288  1  0.24186100  0.53502900  0.05622300  1
  C  289  1  0.20498400  0.54950300  0.06266600  1
  C  290  1  0.18800700  0.54343700  0.07607600  1
  C  291  1  0.20831400  0.52400200  0.08341300  1
  C  292  1  0.24539000  0.51002300  0.07686400  1
  C  296  1  0.30039100  0.49943400  0.05660100  1
  C  297  1  0.33405100  0.50781300  0.04612200  1
  C  298  1  0.37138900  0.49307100  0.04013800  1
  C  299  1  0.37464200  0.46916600  0.04454100  1
  C  300  1  0.34264900  0.45997600  0.05483000  1
  C  301  1  0.30550200  0.47504600  0.06055100  1
  C  309  1  0.99579600  0.51802100  0.19655900  1
  C  310  1  0.01554800  0.53805700  0.20394600  1
  C  311  1  0.05086000  0.55382700  0.19791300  1
  C  312  1  0.06955100  0.54850200  0.18453200  1
  C  313  1  0.05187100  0.52893700  0.17687200  1
  C  314  1  0.01448600  0.51427100  0.18278200  1
  C  318  1  0.95850800  0.50211600  0.20260700  1
  C  319  1  0.92421500  0.50982000  0.21310800  1
  C  320  1  0.88732500  0.49458300  0.21885100  1
  C  321  1  0.88503600  0.47083600  0.21414100  1
  C  322  1  0.91757700  0.46231100  0.20378300  1
  C  323  1  0.95427500  0.47787600  0.19828000  1
  C  331  1  0.99470400  0.74015600  0.06305100  1
  C  332  1  0.01373500  0.72004200  0.05561200  1
  C  333  1  0.04918500  0.70422400  0.06154000  1
  C  334  1  0.06854700  0.70955300  0.07485200  1
  C  335  1  0.05140500  0.72917300  0.08256100  1
  C  336  1  0.01400100  0.74393800  0.07675300  1
  C  340  1  0.95755100  0.75617700  0.05711300  1
  C  341  1  0.92137100  0.74833000  0.04715500  1
  C  342  1  0.88433400  0.76373700  0.04164700  1
  C  343  1  0.88414700  0.78774700  0.04592600  1
  C  344  1  0.91854500  0.79635900  0.05577600  1
  C  345  1  0.95518700  0.78062300  0.06112600  1
  C  353  1  0.74715900  0.76418700  0.31296400  1
  C  354  1  0.76828700  0.78463200  0.30628000  1
  C  355  1  0.80505700  0.79900900  0.31284600  1
  C  356  1  0.82193700  0.79266400  0.32622000  1
  C  357  1  0.80161200  0.77306300  0.33340100  1
  C  358  1  0.76461700  0.75919900  0.32673000  1
  C  362  1  0.70950400  0.74908200  0.30637500  1
  C  363  1  0.67646100  0.75769200  0.29580100  1
  C  364  1  0.63900000  0.74320100  0.28967300  1
  C  365  1  0.63500700  0.71929100  0.29400200  1
  C  366  1  0.66617800  0.70989800  0.30441400  1
  C  367  1  0.70345400  0.72471200  0.31030200  1
  C  375  1  0.74619100  0.99409400  0.44612800  1
  C  376  1  0.76673700  0.97351700  0.45279100  1
  C  377  1  0.80345100  0.95909900  0.44623100  1
  C  378  1  0.82056400  0.96547600  0.43288000  1
  C  379  1  0.80069300  0.98522600  0.42573500  1
  C  380  1  0.76390800  0.99919900  0.43241300  1
  C  384  1  0.70887700  0.00929200  0.45272300  1
  C  385  1  0.67386700  0.00040700  0.46271100  1
  C  386  1  0.63659500  0.01507800  0.46877500  1
  C  387  1  0.63510500  0.03935900  0.46508300  1
  C  388  1  0.66806600  0.04894300  0.45517400  1
  C  389  1  0.70496300  0.03395700  0.44926300  1
  C  397  1  0.01332800  0.99078800  0.31269000  1
  C  398  1  0.99422300  0.97048400  0.30543200  1
  C  399  1  0.95885700  0.95478000  0.31150400  1
  C  400  1  0.93961300  0.96042000  0.32478400  1
  C  401  1  0.95676300  0.98023800  0.33231800  1
  C  402  1  0.99408400  0.99489300  0.32636600  1
  C  406  1  0.05051900  0.00664100  0.30658900  1
  C  407  1  0.08629000  0.99849600  0.29659100  1
  C  408  1  0.12320100  0.01370200  0.29083900  1
  C  409  1  0.12371300  0.03780900  0.29490500  1
  C  410  1  0.09002500  0.04668100  0.30486000  1
  C  411  1  0.05347100  0.03115200  0.31046700  1
  C  419  1  0.01299000  0.76766500  0.44671500  1
  C  420  1  0.99301500  0.78781100  0.45396000  1
  C  421  1  0.95768600  0.80344000  0.44781200  1
  C  422  1  0.93900900  0.79781100  0.43447400  1
  C  423  1  0.95682700  0.77812500  0.42694900  1
  C  424  1  0.99431300  0.76363200  0.43295900  1
  C  428  1  0.05052700  0.75198500  0.45287500  1
  C  429  1  0.08415900  0.75992600  0.46349100  1
  C  430  1  0.12132800  0.74497000  0.46934000  1
  C  431  1  0.12461800  0.72125700  0.46463400  1
  C  432  1  0.09285200  0.71251800  0.45416200  1
  C  433  1  0.05584300  0.72778400  0.44853900  1
  C  441  1  0.26231500  0.24490900  0.69633100  1
  C  442  1  0.24115500  0.22449000  0.70303400  1
  C  443  1  0.20443600  0.21008100  0.69646900  1
  C  444  1  0.18765400  0.21636600  0.68307500  1
  C  445  1  0.20802800  0.23593500  0.67587700  1
  C  446  1  0.24496000  0.24983600  0.68254800  1
  C  450  1  0.29992100  0.26004600  0.70291500  1
  C  451  1  0.33295800  0.25146900  0.71350000  1
  C  452  1  0.37039000  0.26598700  0.71961900  1
  C  453  1  0.37435300  0.28988900  0.71527100  1
  C  454  1  0.34317800  0.29924900  0.70484900  1
  C  455  1  0.30593500  0.28440900  0.69897000  1
  C  463  1  0.26267800  0.01437500  0.56311100  1
  C  464  1  0.24159900  0.03479400  0.55639200  1
  C  465  1  0.20487400  0.04922200  0.56293700  1
  C  466  1  0.18800300  0.04296200  0.57632700  1
  C  467  1  0.20826600  0.02337500  0.58353200  1
  C  468  1  0.24523200  0.00946200  0.57688600  1
  C  472  1  0.30033100  0.99923900  0.55655500  1
  C  473  1  0.33348700  0.00783000  0.54600200  1
  C  474  1  0.37098000  0.99331400  0.53991300  1
  C  475  1  0.37488700  0.96941400  0.54425700  1
  C  476  1  0.34360900  0.96005500  0.55465100  1
  C  477  1  0.30629900  0.97487600  0.56050500  1
  C  485  1  0.99593100  0.01836800  0.69659600  1
  C  486  1  0.01502300  0.03867300  0.70385600  1
  C  487  1  0.05040500  0.05437600  0.69779000  1
  C  488  1  0.06968200  0.04873400  0.68451400  1
  C  489  1  0.05255200  0.02891100  0.67697900  1
  C  490  1  0.01520900  0.01426200  0.68292400  1
  C  494  1  0.95870300  0.00252100  0.70268500  1
  C  495  1  0.92292400  0.01066600  0.71268100  1
  C  496  1  0.88596700  0.99546800  0.71841600  1
  C  497  1  0.88540800  0.97136900  0.71433700  1
  C  498  1  0.91911100  0.96249500  0.70438600  1
  C  499  1  0.95572000  0.97801400  0.69879700  1
  C  507  1  0.99704900  0.24100000  0.56253900  1
  C  508  1  0.01681200  0.22082200  0.55528200  1
  C  509  1  0.05201500  0.20511400  0.56141800  1
  C  510  1  0.07078400  0.21068700  0.57475400  1
  C  511  1  0.05316600  0.23040300  0.58229000  1
  C  512  1  0.01579100  0.24497400  0.57629200  1
  C  516  1  0.95967900  0.25678000  0.55639100  1
  C  517  1  0.92594500  0.24895100  0.54577200  1
  C  518  1  0.88894300  0.26401800  0.53993700  1
  C  519  1  0.88592600  0.28772700  0.54466500  1
  C  520  1  0.91780900  0.29636100  0.55513900  1
  C  521  1  0.95464700  0.28098400  0.56074500  1
  C  529  1  0.24786200  0.76469800  0.81293800  1
  C  530  1  0.26878200  0.78518400  0.80625000  1
  C  531  1  0.30544200  0.79963500  0.81281000  1
  C  532  1  0.32241800  0.79332300  0.82618100  1
  C  533  1  0.30227400  0.77368500  0.83336500  1
  C  534  1  0.26537700  0.75975300  0.82670400  1
  C  538  1  0.21036000  0.74949800  0.80636000  1
  C  539  1  0.17719500  0.75801100  0.79578900  1
  C  540  1  0.13987400  0.74341700  0.78968000  1
  C  541  1  0.13614400  0.71950400  0.79402600  1
  C  542  1  0.16746500  0.71020400  0.80443400  1
  C  543  1  0.20460400  0.72512000  0.81029600  1
  C  551  1  0.24640100  0.99417700  0.94620900  1
  C  552  1  0.26689800  0.97359500  0.95287600  1
  C  553  1  0.30367100  0.95918600  0.94633700  1
  C  554  1  0.32090900  0.96558300  0.93300100  1
  C  555  1  0.30108600  0.98533700  0.92585000  1
  C  556  1  0.26423300  0.99929700  0.93250800  1
  C  560  1  0.20902400  0.00936700  0.95278200  1
  C  561  1  0.17395900  0.00047100  0.96275100  1
  C  562  1  0.13662800  0.01512900  0.96879600  1
  C  563  1  0.13512500  0.03941000  0.96510500  1
  C  564  1  0.16813100  0.04900400  0.95521000  1
  C  565  1  0.20509000  0.03403000  0.94932000  1
  C  573  1  0.51303100  0.99150100  0.81266300  1
  C  574  1  0.49332100  0.97135100  0.80536500  1
  C  575  1  0.45802300  0.95563300  0.81145000  1
  C  576  1  0.43918000  0.96114900  0.82478700  1
  C  577  1  0.45676600  0.98082600  0.83236100  1
  C  578  1  0.49418800  0.99542400  0.82640900  1
  C  582  1  0.55049500  0.00729200  0.80657100  1
  C  583  1  0.58442800  0.99944500  0.79600800  1
  C  584  1  0.62149700  0.01451500  0.79021300  1
  C  585  1  0.62438300  0.03823800  0.79491800  1
  C  586  1  0.59238300  0.04687500  0.80536300  1
  C  587  1  0.55545600  0.03149900  0.81093000  1
  C  595  1  0.51297500  0.76772400  0.94676700  1
  C  596  1  0.49296900  0.78784000  0.95403400  1
  C  597  1  0.45770400  0.80350600  0.94788900  1
  C  598  1  0.43913100  0.79794400  0.93453100  1
  C  599  1  0.45699100  0.77829000  0.92698600  1
  C  600  1  0.49440600  0.76375500  0.93299600  1
  C  604  1  0.55046900  0.75201500  0.95291700  1
  C  605  1  0.58409700  0.75992700  0.96353900  1
  C  606  1  0.62125400  0.74495400  0.96937500  1
  C  607  1  0.62453300  0.72125100  0.96465100  1
  C  608  1  0.59276200  0.71253900  0.95417300  1
  C  609  1  0.55576400  0.72782300  0.94856000  1
  C  617  1  0.76157400  0.24440800  0.19635700  1
  C  618  1  0.74061800  0.22394900  0.20306400  1
  C  619  1  0.70401000  0.20946900  0.19650400  1
  C  620  1  0.68713700  0.21572000  0.18311300  1
  C  621  1  0.70733500  0.23532700  0.17591200  1
  C  622  1  0.74416800  0.24929300  0.18257400  1
  C  626  1  0.79902600  0.25963700  0.20293200  1
  C  627  1  0.83218600  0.25115600  0.21351200  1
  C  628  1  0.86948100  0.26577400  0.21961400  1
  C  629  1  0.87318500  0.28967900  0.21525100  1
  C  630  1  0.84186100  0.29894800  0.20483500  1
  C  631  1  0.80475300  0.28400800  0.19897900  1
  C  639  1  0.76247800  0.01429400  0.06303000  1
  C  640  1  0.74145500  0.03471700  0.05630000  1
  C  641  1  0.70467400  0.04914100  0.06282400  1
  C  642  1  0.68767800  0.04287100  0.07619800  1
  C  643  1  0.70788600  0.02328300  0.08341400  1
  C  644  1  0.74492300  0.00937800  0.07679300  1
  C  648  1  0.80019000  0.99915700  0.05649800  1
  C  649  1  0.83337200  0.00773800  0.04594900  1
  C  650  1  0.87091100  0.99322300  0.03988200  1
  C  651  1  0.87484700  0.96933400  0.04424500  1
  C  652  1  0.84354600  0.95998600  0.05463700  1
  C  653  1  0.80618700  0.97480300  0.06046700  1
  C  661  1  0.49622200  0.01765600  0.19661800  1
  C  662  1  0.51590600  0.03780700  0.20392100  1
  C  663  1  0.55120800  0.05353300  0.19784200  1
  C  664  1  0.57008400  0.04802000  0.18450900  1
  C  665  1  0.55253300  0.02833700  0.17693200  1
  C  666  1  0.51509900  0.01373700  0.18287600  1
  C  670  1  0.45874300  0.00185800  0.20269900  1
  C  671  1  0.42479900  0.00969100  0.21326200  1
  C  672  1  0.38770300  0.99461900  0.21904300  1
  C  673  1  0.38480600  0.97090400  0.21432300  1
  C  674  1  0.41682100  0.96227800  0.20387800  1
  C  675  1  0.45377500  0.97765600  0.19832700  1
  C  683  1  0.49707000  0.24094300  0.06247900  1
  C  684  1  0.51687000  0.22079500  0.05520100  1
  C  685  1  0.55200700  0.20505200  0.06133400  1
  C  686  1  0.57067000  0.21056000  0.07469100  1
  C  687  1  0.55300900  0.23024500  0.08224600  1
  C  688  1  0.51570300  0.24485500  0.07624900  1
  C  692  1  0.45973400  0.25674600  0.05634100  1
  C  693  1  0.42600000  0.24893900  0.04571900  1
  C  694  1  0.38900200  0.26401800  0.03989700  1
  C  695  1  0.38599200  0.28771800  0.04463800  1
  C  696  1  0.41788300  0.29633200  0.05511600  1
  C  697  1  0.45472000  0.28094300  0.06071100  1
  C  705  1  0.35470700  0.35458000  0.29886300  1
  C  706  1  0.34858200  0.37558800  0.29089500  1
  C  707  1  0.37902700  0.39567100  0.29363200  1
  C  708  1  0.41586000  0.39455300  0.30423700  1
  C  713  1  0.32345900  0.33475000  0.29774300  1
  C  715  1  0.44307900  0.41371700  0.30947500  1
  C  717  1  0.35590100  0.40405800  0.46035500  1
  C  718  1  0.34980800  0.38301600  0.46829100  1
  C  719  1  0.38024600  0.36294900  0.46551100  1
  C  720  1  0.41703500  0.36412300  0.45489500  1
  C  725  1  0.32458100  0.42385600  0.46148700  1
  C  727  1  0.44419400  0.34497200  0.44962400  1
  C  729  1  0.65456700  0.65456500  0.71046200  1
  C  730  1  0.66060500  0.63356300  0.71843900  1
  C  731  1  0.63015500  0.61348700  0.71569300  1
  C  732  1  0.59340000  0.61460500  0.70506600  1
  C  737  1  0.68583100  0.67438900  0.71159400  1
  C  739  1  0.56619300  0.59544300  0.69982100  1
  C  741  1  0.65262300  0.60424600  0.54879400  1
  C  742  1  0.65903600  0.62530700  0.54089600  1
  C  743  1  0.62884200  0.64544900  0.54369400  1
  C  744  1  0.59197400  0.64433100  0.55429200  1
  C  749  1  0.68377500  0.58438900  0.54766800  1
  C  751  1  0.56505600  0.66353900  0.55958200  1
  C  753  1  0.85452600  0.35530700  0.79881800  1
  C  754  1  0.84811600  0.37631600  0.79087100  1
  C  755  1  0.87841600  0.39645500  0.79359200  1
  C  756  1  0.91538500  0.39538800  0.80416200  1
  C  761  1  0.82344600  0.33541400  0.79771300  1
  C  763  1  0.94258500  0.41458100  0.80937000  1
  C  765  1  0.85596300  0.40410900  0.96047500  1
  C  766  1  0.84972600  0.38303900  0.96837600  1
  C  767  1  0.88017600  0.36297400  0.96560200  1
  C  768  1  0.91712300  0.36417800  0.95502800  1
  C  773  1  0.82464300  0.42390900  0.96159700  1
  C  775  1  0.94430800  0.34503700  0.94975800  1
  C  777  1  0.15482200  0.65383700  0.21051900  1
  C  778  1  0.16128900  0.63280100  0.21843800  1
  C  779  1  0.13096700  0.61267500  0.21571000  1
  C  780  1  0.09386300  0.61377500  0.20517500  1
  C  785  1  0.18593600  0.67371700  0.21162300  1
  C  787  1  0.06674800  0.59458300  0.19993700  1
  C  789  1  0.15254000  0.60418900  0.04868400  1
  C  790  1  0.15910200  0.62527800  0.04081900  1
  C  791  1  0.12889300  0.64541900  0.04360900  1
  C  792  1  0.09186600  0.64427200  0.05416300  1
  C  797  1  0.18369500  0.58433000  0.04756900  1
  C  799  1  0.06491700  0.66347200  0.05945300  1
  C  801  1  0.85648900  0.85418000  0.29914700  1
  C  802  1  0.85009800  0.87508400  0.29110200  1
  C  803  1  0.87989500  0.89537600  0.29386200  1
  C  804  1  0.91639800  0.89458000  0.30456600  1
  C  809  1  0.82582900  0.83414700  0.29798400  1
  C  811  1  0.94293400  0.91395600  0.30980800  1
  C  813  1  0.85481100  0.90396700  0.46000000  1
  C  814  1  0.84864600  0.88314500  0.46813200  1
  C  815  1  0.87851000  0.86286000  0.46541200  1
  C  816  1  0.91480300  0.86359200  0.45465300  1
  C  821  1  0.82410600  0.92399000  0.46112600  1
  C  823  1  0.94162800  0.84422700  0.44951600  1
  C  825  1  0.15282700  0.15495700  0.71018000  1
  C  826  1  0.15913500  0.13405600  0.71823300  1
  C  827  1  0.12933300  0.11377100  0.71546000  1
  C  828  1  0.09290800  0.11457100  0.70473600  1
  C  833  1  0.18350500  0.17498300  0.71135700  1
  C  835  1  0.06637800  0.09519900  0.69948500  1
  C  837  1  0.15371500  0.10435500  0.54912700  1
  C  838  1  0.16021100  0.12520200  0.54103800  1
  C  839  1  0.13058800  0.14555800  0.54377900  1
  C  840  1  0.09421400  0.14487500  0.55451900  1
  C  845  1  0.18425900  0.08427800  0.54800400  1
  C  847  1  0.06763400  0.16429400  0.55968100  1
  C  849  1  0.35629900  0.85490000  0.79908200  1
  C  850  1  0.34958300  0.87581100  0.79106500  1
  C  851  1  0.37924400  0.89615400  0.79380500  1
  C  852  1  0.41592800  0.89540300  0.80446200  1
  C  857  1  0.32580000  0.83480700  0.79794000  1
  C  859  1  0.44245600  0.91480400  0.80967200  1
  C  861  1  0.35486500  0.90402100  0.96010900  1
  C  862  1  0.34855600  0.88317200  0.96820700  1
  C  863  1  0.37843800  0.86288900  0.96549500  1
  C  864  1  0.41488800  0.86364900  0.95477800  1
  C  869  1  0.32415400  0.92404300  0.96122400  1
  C  871  1  0.44174700  0.84429400  0.94964200  1
  C  873  1  0.65297600  0.15424900  0.21024400  1
  C  874  1  0.65961400  0.13334000  0.21826800  1
  C  875  1  0.62994900  0.11300200  0.21551600  1
  C  876  1  0.59333300  0.11375800  0.20484200  1
  C  881  1  0.68349300  0.17433300  0.21139700  1
  C  883  1  0.56681200  0.09436100  0.19962200  1
  C  885  1  0.65368100  0.10430600  0.04901000  1
  C  886  1  0.66030900  0.12518100  0.04095300  1
  C  887  1  0.63067300  0.14553400  0.04368900  1
  C  888  1  0.59415100  0.14482200  0.05438900  1
  C  893  1  0.68422900  0.08422900  0.04789600  1
  C  895  1  0.56754000  0.16423100  0.05955000  1
  C  897  1  0.02508300  0.25235600  0.26943700  1
  C  898  1  0.97299000  0.24748200  0.26949000  1
  C  899  1  0.94499800  0.24981500  0.25712200  1
  C  900  1  0.96941400  0.25679100  0.24470100  1
  C  905  1  0.05463400  0.24798100  0.28106100  1
  C  907  1  0.94499100  0.26171000  0.23226600  1
  C  909  1  0.02673600  0.50642200  0.49021900  1
  C  910  1  0.97475800  0.51157500  0.49027300  1
  C  911  1  0.94691600  0.50912200  0.50266000  1
  C  912  1  0.97134300  0.50169800  0.51499000  1
  C  917  1  0.05616600  0.51086400  0.47857400  1
  C  919  1  0.94696800  0.49671500  0.52742800  1
  C  921  1  0.73279000  0.50625500  0.26911800  1
  C  922  1  0.78448100  0.51199800  0.26892700  1
  C  923  1  0.81207100  0.50970500  0.25648800  1
  C  924  1  0.78765200  0.50187000  0.24424300  1
  C  929  1  0.70351800  0.51039600  0.28082600  1
  C  931  1  0.81186800  0.49709000  0.23175700  1
  C  933  1  0.73488800  0.25260900  0.48957300  1
  C  934  1  0.78670600  0.24712400  0.48971000  1
  C  935  1  0.81421800  0.24916500  0.50217700  1
  C  936  1  0.78959900  0.25651500  0.51449500  1
  C  941  1  0.70568400  0.24863100  0.47783700  1
  C  943  1  0.81366600  0.26106700  0.52702900  1
  C  945  1  0.98427100  0.75688200  0.73986700  1
  C  946  1  0.03636500  0.76175100  0.73981100  1
  C  947  1  0.06435300  0.75942300  0.75218100  1
  C  948  1  0.03993200  0.75246200  0.76460400  1
  C  953  1  0.95472200  0.76124500  0.72823900  1
  C  955  1  0.06436200  0.74752700  0.77703700  1
  C  957  1  0.27635000  0.50290300  0.74013800  1
  C  958  1  0.22467400  0.49712600  0.74033500  1
  C  959  1  0.19708200  0.49943400  0.75277200  1
  C  960  1  0.22146600  0.50735900  0.76500300  1
  C  965  1  0.30563400  0.49874800  0.72843500  1
  C  967  1  0.19723100  0.51213000  0.77748700  1
  C  969  1  0.27530900  0.75660800  0.51968600  1
  C  970  1  0.22351500  0.76214300  0.51954100  1
  C  971  1  0.19601000  0.76010000  0.50707200  1
  C  972  1  0.22062600  0.75272700  0.49476000  1
  C  977  1  0.30451000  0.76054700  0.53142900  1
  C  979  1  0.19660600  0.74816600  0.48221900  1
  C  981  1  0.52594000  0.25228300  0.76942200  1
  C  982  1  0.47387400  0.24734300  0.76946200  1
  C  983  1  0.44588600  0.24969900  0.75709300  1
  C  984  1  0.47027900  0.25680000  0.74469200  1
  C  989  1  0.55552400  0.24791100  0.78104100  1
  C  991  1  0.44586000  0.26172000  0.73225600  1
  C  993  1  0.52675500  0.50642400  0.99022800  1
  C  994  1  0.47476800  0.51155700  0.99027400  1
  C  995  1  0.44691100  0.50910100  0.00265700  1
  C  996  1  0.47134100  0.50171500  0.01499400  1
  C  1001  1  0.55619500  0.51088000  0.97858900  1
  C  1003  1  0.44699000  0.49675400  0.02743900  1
  C  1005  1  0.23495500  0.25265700  0.98954600  1
  C  1006  1  0.28676400  0.24715800  0.98968100  1
  C  1007  1  0.31426800  0.24917900  0.00215000  1
  C  1008  1  0.28964800  0.25652500  0.01446800  1
  C  1013  1  0.20577400  0.24872900  0.97780000  1
  C  1015  1  0.31371000  0.26106500  0.02700300  1
  C  1017  1  0.48345500  0.75694800  0.23987200  1
  C  1018  1  0.53553300  0.76186900  0.23982600  1
  C  1019  1  0.56352500  0.75951400  0.25219300  1
  C  1020  1  0.53912000  0.75248100  0.26460700  1
  C  1025  1  0.45389100  0.76130000  0.22824700  1
  C  1027  1  0.56354700  0.74750600  0.27703400  1
  C  1029  1  0.77525600  0.75658800  0.01970900  1
  C  1030  1  0.72347200  0.76213600  0.01956500  1
  C  1031  1  0.69596800  0.76009700  0.00709600  1
  C  1032  1  0.72057100  0.75268800  0.99478800  1
  C  1037  1  0.80445300  0.76050100  0.03145500  1
  C  1039  1  0.69652300  0.74811800  0.98225500  1
  C  1041  1  0.52710400  0.00587600  0.49022500  1
  C  1042  1  0.47489100  0.01044200  0.49003800  1
  C  1043  1  0.44677600  0.00849500  0.50240400  1
  C  1044  1  0.47118000  0.00222700  0.51495800  1
  C  1049  1  0.55675800  0.01006400  0.47860100  1
  C  1051  1  0.44666700  0.99763800  0.52742000  1
  C  1053  1  0.23252800  0.00587600  0.26911400  1
  C  1054  1  0.28443200  0.01117200  0.26910800  1
  C  1055  1  0.31222400  0.00920200  0.25668700  1
  C  1056  1  0.28779900  0.00210900  0.24428800  1
  C  1061  1  0.20307500  0.00986400  0.28079900  1
  C  1063  1  0.31214000  0.99762200  0.23179000  1
  C  1065  1  0.77664500  0.00330400  0.74014000  1
  C  1066  1  0.72472100  0.99804700  0.74013800  1
  C  1067  1  0.69693600  0.99999700  0.75256100  1
  C  1068  1  0.72139300  0.00698500  0.76497600  1
  C  1073  1  0.80608900  0.99933700  0.72845100  1
  C  1075  1  0.69707500  0.01147800  0.77747700  1
  C  1077  1  0.02708200  0.00588800  0.99020900  1
  C  1078  1  0.97488500  0.01049300  0.99002500  1
  C  1079  1  0.94675800  0.00851300  0.00238900  1
  C  1080  1  0.97113200  0.00212500  0.01492500  1
  C  1085  1  0.05675800  0.01008800  0.97859100  1
  C  1087  1  0.94658200  0.99751800  0.02737800  1
  C  1089  1  0.15574000  0.14961200  0.31726100  1
  C  1090  1  0.18306600  0.12873700  0.32040300  1
  C  1091  1  0.15821900  0.10661500  0.32066500  1
  C  1092  1  0.10618000  0.10551500  0.31781700  1
  C  1097  1  0.17786200  0.17197500  0.31671600  1
  C  1099  1  0.08008900  0.08418100  0.31740000  1
  C  1101  1  0.15810300  0.60906300  0.44205500  1
  C  1102  1  0.18586200  0.62974100  0.43876300  1
  C  1103  1  0.16151600  0.65198100  0.43840800  1
  C  1104  1  0.10954300  0.65337900  0.44129400  1
  C  1109  1  0.17970700  0.58659900  0.44276600  1
  C  1111  1  0.08392100  0.67481100  0.44168800  1
  C  1113  1  0.59806500  0.60685000  0.31751100  1
  C  1114  1  0.56973200  0.62781100  0.31958000  1
  C  1115  1  0.59409100  0.65006300  0.31961400  1
  C  1116  1  0.64663000  0.65121000  0.31759900  1
  C  1121  1  0.57661000  0.58433400  0.31715300  1
  C  1123  1  0.67265500  0.67258800  0.31717800  1
  C  1125  1  0.60009900  0.15211500  0.44136300  1
  C  1126  1  0.57140500  0.13101300  0.44054200  1
  C  1127  1  0.59580200  0.10878000  0.44081000  1
  C  1128  1  0.64872800  0.10779200  0.44185500  1
  C  1133  1  0.57876100  0.17468200  0.44151200  1
  C  1135  1  0.67483200  0.08650200  0.44261700  1
  C  1137  1  0.85352000  0.85952600  0.69198700  1
  C  1138  1  0.82616600  0.88039300  0.68884300  1
  C  1139  1  0.85098000  0.90252500  0.68858300  1
  C  1140  1  0.90301200  0.90364300  0.69143800  1
  C  1145  1  0.83143200  0.83715600  0.69253300  1
  C  1147  1  0.92908300  0.92498400  0.69185400  1
  C  1149  1  0.85382100  0.39986200  0.56773800  1
  C  1150  1  0.82580600  0.37919600  0.57089200  1
  C  1151  1  0.84988800  0.35688700  0.57111200  1
  C  1152  1  0.90184500  0.35540700  0.56822500  1
  C  1157  1  0.83242600  0.42237800  0.56714000  1
  C  1159  1  0.92721700  0.33391800  0.56771300  1
  C  1161  1  0.41114300  0.40230700  0.69174500  1
  C  1162  1  0.43948400  0.38135600  0.68964800  1
  C  1163  1  0.41514700  0.35909700  0.68961300  1
  C  1164  1  0.36262100  0.35793600  0.69165300  1
  C  1169  1  0.43258300  0.42482700  0.69210700  1
  C  1171  1  0.33662700  0.33654900  0.69207400  1
  C  1173  1  0.41133100  0.85662500  0.56816200  1
  C  1174  1  0.44030200  0.87760600  0.56924800  1
  C  1175  1  0.41623600  0.89992500  0.56912200  1
  C  1176  1  0.36336300  0.90111200  0.56795600  1
  C  1181  1  0.43235400  0.83399700  0.56788300  1
  C  1183  1  0.33752700  0.92248300  0.56730500  1
  C  1185  1  0.65795600  0.15000600  0.81750000  1
  C  1186  1  0.68551600  0.12930200  0.82086800  1
  C  1187  1  0.66099500  0.10710500  0.82126500  1
  C  1188  1  0.60905300  0.10576300  0.81832500  1
  C  1193  1  0.67975600  0.17242700  0.81682900  1
  C  1195  1  0.58323400  0.08435100  0.81802500  1
  C  1197  1  0.65807200  0.60910600  0.94207000  1
  C  1198  1  0.68580100  0.62978600  0.93876000  1
  C  1199  1  0.66143500  0.65202000  0.93839700  1
  C  1200  1  0.60946600  0.65341100  0.94129200  1
  C  1205  1  0.67970300  0.58664900  0.94279100  1
  C  1207  1  0.58383100  0.67484100  0.94168300  1
  C  1209  1  0.10066500  0.60710800  0.81799000  1
  C  1210  1  0.07209400  0.62802800  0.81995900  1
  C  1211  1  0.09619000  0.65034300  0.81986200  1
  C  1212  1  0.14870000  0.65159100  0.81781400  1
  C  1217  1  0.07942000  0.58454500  0.81773800  1
  C  1219  1  0.17447100  0.67302600  0.81727800  1
  C  1221  1  0.10009100  0.15216100  0.94138500  1
  C  1222  1  0.07141400  0.13105400  0.94056700  1
  C  1223  1  0.09583100  0.10882500  0.94084000  1
  C  1224  1  0.14875600  0.10784700  0.94188400  1
  C  1229  1  0.07873400  0.17472600  0.94153100  1
  C  1231  1  0.17488000  0.08656300  0.94265100  1
  C  1233  1  0.35136400  0.85912400  0.19173600  1
  C  1234  1  0.32378000  0.87981800  0.18836600  1
  C  1235  1  0.34826800  0.90202400  0.18797000  1
  C  1236  1  0.40020700  0.90338300  0.19091600  1
  C  1241  1  0.32959500  0.83669500  0.19240800  1
  C  1243  1  0.42600000  0.92480200  0.19121300  1
  C  1245  1  0.35383500  0.39981700  0.06770200  1
  C  1246  1  0.32585600  0.37915000  0.07087700  1
  C  1247  1  0.34995900  0.35684600  0.07110500  1
  C  1248  1  0.40191100  0.35537500  0.06820600  1
  C  1253  1  0.33241300  0.42232800  0.06709600  1
  C  1255  1  0.42729900  0.33388800  0.06769700  1
  C  1257  1  0.90851400  0.40206300  0.19128200  1
  C  1258  1  0.93708700  0.38115200  0.18928300  1
  C  1259  1  0.91301300  0.35883100  0.18937600  1
  C  1260  1  0.86051900  0.35756900  0.19145100  1
  C  1265  1  0.92974300  0.42462900  0.19153700  1
  C  1267  1  0.83477500  0.33612300  0.19198700  1
  C  1269  1  0.91133600  0.85657700  0.06816900  1
  C  1270  1  0.94028500  0.87756300  0.06926100  1
  C  1271  1  0.91619900  0.89987600  0.06913400  1
  C  1272  1  0.86333000  0.90105500  0.06796000  1
  C  1277  1  0.93237800  0.83395300  0.06788700  1
  C  1279  1  0.83747700  0.92242300  0.06730500  1
  C  1281  1  0.34413900  0.27656800  0.36900700  1
  C  1282  1  0.33972800  0.29133500  0.38085700  1
  C  1283  1  0.36904600  0.28666600  0.39270400  1
  C  1284  1  0.40313500  0.26731600  0.39269300  1
  C  1289  1  0.31985400  0.28244300  0.35670200  1
  C  1291  1  0.43474000  0.26213200  0.40384200  1
  C  1293  1  0.34419000  0.48202800  0.39016800  1
  C  1294  1  0.33972500  0.46725100  0.37832200  1
  C  1295  1  0.36883300  0.47197100  0.36644200  1
  C  1296  1  0.40275200  0.49138800  0.36641000  1
  C  1301  1  0.32013800  0.47610400  0.40250100  1
  C  1303  1  0.43412900  0.49663300  0.35521800  1
  C  1305  1  0.66578400  0.73223300  0.64024400  1
  C  1306  1  0.67020500  0.71737300  0.62843400  1
  C  1307  1  0.64093700  0.72196600  0.61656700  1
  C  1308  1  0.60689200  0.74133100  0.61652100  1
  C  1313  1  0.69001200  0.72644100  0.65257100  1
  C  1315  1  0.57535000  0.74645700  0.60534900  1
  C  1317  1  0.66511600  0.52687300  0.61913500  1
  C  1318  1  0.66916500  0.54188700  0.63088800  1
  C  1319  1  0.64007000  0.53724100  0.64278100  1
  C  1320  1  0.60659100  0.51765500  0.64291700  1
  C  1325  1  0.68910000  0.53269400  0.60677400  1
  C  1327  1  0.57528200  0.51243800  0.65412700  1
  C  1329  1  0.84487000  0.27715000  0.86897400  1
  C  1330  1  0.84063000  0.29194100  0.88081800  1
  C  1331  1  0.86983800  0.28718400  0.89267300  1
  C  1332  1  0.90363900  0.26772000  0.89267600  1
  C  1337  1  0.82062700  0.28306800  0.85667100  1
  C  1339  1  0.93509800  0.26243100  0.90383900  1
  C  1341  1  0.84492300  0.48218200  0.89032600  1
  C  1342  1  0.84078400  0.46734600  0.87849800  1
  C  1343  1  0.86987900  0.47213500  0.86662600  1
  C  1344  1  0.90345100  0.49168700  0.86658300  1
  C  1349  1  0.82083400  0.47622700  0.90264700  1
  C  1351  1  0.93470100  0.49704600  0.85538200  1
  C  1353  1  0.16507200  0.73164700  0.14028000  1
  C  1354  1  0.16930800  0.71676000  0.12847700  1
  C  1355  1  0.14014400  0.72144000  0.11660200  1
  C  1356  1  0.10639700  0.74092300  0.11654200  1
  C  1361  1  0.18926300  0.72581600  0.15260500  1
  C  1363  1  0.07499600  0.74615200  0.10535700  1
  C  1365  1  0.16442000  0.52670000  0.11898600  1
  C  1366  1  0.16817800  0.54176400  0.13072500  1
  C  1367  1  0.13909900  0.53705200  0.14261000  1
  C  1368  1  0.10593600  0.51734500  0.14275600  1
  C  1373  1  0.18843900  0.53255400  0.10663700  1
  C  1375  1  0.07474900  0.51202300  0.15397500  1
  C  1377  1  0.84440900  0.77526500  0.36908300  1
  C  1378  1  0.83926000  0.78986400  0.38098100  1
  C  1379  1  0.86826500  0.78519500  0.39288800  1
  C  1380  1  0.90279100  0.76601800  0.39288900  1
  C  1385  1  0.82052600  0.78120700  0.35672900  1
  C  1387  1  0.93416000  0.76088000  0.40410000  1
  C  1389  1  0.84351900  0.98320300  0.39005300  1
  C  1390  1  0.83769900  0.96889200  0.37806000  1
  C  1391  1  0.86672300  0.97357400  0.36615800  1
  C  1392  1  0.90192400  0.99246800  0.36626000  1
  C  1397  1  0.81959500  0.97721600  0.40239300  1
  C  1399  1  0.93343200  0.99754700  0.35507400  1
  C  1401  1  0.16554700  0.23352300  0.64017300  1
  C  1402  1  0.17069100  0.21882500  0.62831600  1
  C  1403  1  0.14173200  0.22341800  0.61639100  1
  C  1404  1  0.10726000  0.24261500  0.61633000  1
  C  1409  1  0.18937700  0.22766800  0.65254900  1
  C  1411  1  0.07596600  0.24769600  0.60509700  1
  C  1413  1  0.16572900  0.02572600  0.61922600  1
  C  1414  1  0.17115000  0.04028400  0.63113200  1
  C  1415  1  0.14215400  0.03567200  0.64304800  1
  C  1416  1  0.10739000  0.01659500  0.64304800  1
  C  1421  1  0.18957200  0.03161500  0.60686000  1
  C  1423  1  0.07595800  0.01154100  0.65425400  1
  C  1425  1  0.34513900  0.77584700  0.86904100  1
  C  1426  1  0.34011000  0.79045400  0.88093800  1
  C  1427  1  0.36900600  0.78569900  0.89285200  1
  C  1428  1  0.40330000  0.76642800  0.89286200  1
  C  1433  1  0.32129900  0.78183300  0.85668900  1
  C  1435  1  0.43452300  0.76118800  0.90408700  1
  C  1437  1  0.34418900  0.98334600  0.89019600  1
  C  1438  1  0.33867800  0.96896300  0.87822100  1
  C  1439  1  0.36769200  0.97370600  0.86632700  1
  C  1440  1  0.40256800  0.99273800  0.86641700  1
  C  1445  1  0.32022800  0.97733200  0.90252400  1
  C  1447  1  0.43396700  0.99792300  0.85522400  1
  C  1449  1  0.66480100  0.23295500  0.14021200  1
  C  1450  1  0.66983300  0.21825200  0.12835600  1
  C  1451  1  0.64099300  0.22292900  0.11642100  1
  C  1452  1  0.60675700  0.24222100  0.11635100  1
  C  1457  1  0.68857800  0.22705700  0.15258800  1
  C  1459  1  0.57559700  0.24739800  0.10510400  1
  C  1461  1  0.66504500  0.02561500  0.11907900  1
  C  1462  1  0.67011100  0.04025600  0.13096200  1
  C  1463  1  0.64112400  0.03558000  0.14287000  1
  C  1464  1  0.60673000  0.01635000  0.14288700  1
  C  1469  1  0.68892700  0.03152800  0.10672400  1
  C  1471  1  0.57541700  0.01118400  0.15410100  1
  N  19  1  0.15930800  0.18713100  0.30798900  1
  N  20  1  0.10267200  0.25100600  0.28117300  1
  N  21  1  0.31781200  0.26849100  0.34605200  1
  N  22  1  0.32272900  0.31957700  0.30775200  1
  N  41  1  0.16081400  0.57149300  0.45144800  1
  N  42  1  0.10415300  0.50767400  0.47835200  1
  N  43  1  0.31803300  0.49005900  0.41314900  1
  N  44  1  0.32366000  0.43899200  0.45146200  1
  N  63  1  0.59660500  0.56912300  0.30872500  1
  N  64  1  0.65570800  0.50670700  0.28113500  1
  N  65  1  0.43591500  0.48251000  0.34470900  1
  N  66  1  0.44050900  0.43531800  0.30486600  1
  N  85  1  0.59919500  0.18992000  0.44980900  1
  N  86  1  0.65782100  0.25216000  0.47757300  1
  N  87  1  0.43661300  0.27626700  0.41434400  1
  N  88  1  0.44176600  0.32335900  0.45421500  1
  N  107  1  0.85000400  0.82200800  0.70126100  1
  N  108  1  0.90669000  0.75820000  0.72812400  1
  N  109  1  0.69189200  0.74044400  0.66320000  1
  N  110  1  0.68668700  0.68954100  0.70157500  1
  N  129  1  0.85143000  0.43757300  0.55852400  1
  N  130  1  0.89969800  0.50040500  0.52946100  1
  N  131  1  0.69119000  0.51862700  0.59617700  1
  N  132  1  0.68464900  0.56929600  0.55771700  1
  N  151  1  0.41258800  0.44003500  0.70053800  1
  N  152  1  0.35343800  0.50244900  0.72812500  1
  N  153  1  0.57341700  0.52662900  0.66460300  1
  N  154  1  0.56870000  0.57384600  0.70443700  1
  N  173  1  0.41177000  0.81894100  0.55949700  1
  N  174  1  0.35233100  0.75688600  0.53170000  1
  N  175  1  0.57342800  0.73224000  0.59488400  1
  N  176  1  0.56771300  0.68515400  0.55500500  1
  N  195  1  0.66100300  0.18741400  0.80803400  1
  N  196  1  0.60350700  0.25111300  0.78118200  1
  N  197  1  0.81851100  0.26912000  0.84602200  1
  N  198  1  0.82292400  0.32023900  0.80772200  1
  N  217  1  0.66081500  0.57154100  0.95147200  1
  N  218  1  0.60419000  0.50772200  0.97837900  1
  N  219  1  0.81853300  0.49018800  0.91328900  1
  N  220  1  0.82384300  0.43907000  0.95158200  1
  N  239  1  0.09947500  0.56926500  0.80935600  1
  N  240  1  0.15028300  0.50781700  0.77963900  1
  N  241  1  0.93628000  0.48304800  0.84481600  1
  N  242  1  0.93956800  0.43621400  0.80483600  1
  N  261  1  0.09917400  0.18996900  0.94982400  1
  N  262  1  0.15788800  0.25219300  0.97758100  1
  N  263  1  0.93691500  0.27650200  0.91437100  1
  N  264  1  0.94176700  0.32340600  0.95431500  1
  N  283  1  0.34836000  0.82172000  0.20120800  1
  N  284  1  0.40590400  0.75809500  0.22811100  1
  N  285  1  0.19121900  0.73981600  0.16323300  1
  N  286  1  0.18652700  0.68887500  0.20160600  1
  N  305  1  0.35140900  0.43752600  0.05848100  1
  N  306  1  0.39969300  0.50039400  0.02944600  1
  N  307  1  0.19069200  0.51848400  0.09604500  1
  N  308  1  0.18444400  0.56921400  0.05760700  1
  N  327  1  0.90968100  0.43991300  0.19991700  1
  N  328  1  0.85883100  0.50138400  0.22961600  1
  N  329  1  0.07310100  0.52609400  0.16450900  1
  N  330  1  0.06964800  0.57295400  0.20448200  1
  N  349  1  0.91180900  0.81889900  0.05949700  1
  N  350  1  0.85228600  0.75687500  0.03169500  1
  N  351  1  0.07312300  0.73199900  0.09486300  1
  N  352  1  0.06769200  0.68510300  0.05491000  1
  N  371  1  0.65611700  0.68759400  0.30808300  1
  N  372  1  0.61102700  0.75071800  0.27896100  1
  N  373  1  0.81906200  0.76736600  0.34602300  1
  N  374  1  0.82544600  0.81890000  0.30795900  1
  N  393  1  0.65941600  0.07152600  0.45187200  1
  N  394  1  0.60488800  0.00738400  0.47860700  1
  N  395  1  0.81833800  0.99096500  0.41314100  1
  N  396  1  0.82371200  0.93919200  0.45112900  1
  N  415  1  0.09765400  0.06921700  0.30843600  1
  N  416  1  0.15513200  0.00656900  0.28092600  1
  N  417  1  0.93510600  0.98333200  0.34460700  1
  N  418  1  0.94052100  0.93545200  0.30502800  1
  N  437  1  0.10230700  0.69033100  0.45019400  1
  N  438  1  0.14937800  0.75189900  0.48016700  1
  N  439  1  0.93560900  0.77501700  0.41460500  1
  N  440  1  0.93892200  0.82270800  0.45424700  1
  N  459  1  0.35321500  0.32154800  0.70116400  1
  N  460  1  0.39837600  0.25850400  0.73033700  1
  N  461  1  0.19067600  0.24156200  0.66323400  1
  N  462  1  0.18401600  0.19021000  0.70137000  1
  N  481  1  0.35373500  0.93778500  0.55833700  1
  N  482  1  0.39908200  0.00072900  0.52921000  1
  N  483  1  0.19084100  0.01774600  0.59616500  1
  N  484  1  0.18459000  0.06910900  0.55802000  1
  N  503  1  0.91144800  0.93996600  0.70079900  1
  N  504  1  0.85404200  0.00259700  0.72833100  1
  N  505  1  0.07421800  0.02581700  0.66469300  1
  N  506  1  0.06873000  0.07370400  0.70427000  1
  N  525  1  0.90864900  0.31856200  0.55913500  1
  N  526  1  0.86082300  0.25717700  0.52910600  1
  N  527  1  0.07446300  0.23348100  0.59462900  1
  N  528  1  0.07056900  0.18581600  0.55496600  1
  N  547  1  0.15770100  0.68788300  0.80813000  1
  N  548  1  0.11180300  0.75085500  0.77896900  1
  N  549  1  0.31977100  0.76799500  0.84598300  1
  N  550  1  0.32564500  0.81956300  0.80791800  1
  N  569  1  0.15946600  0.07158400  0.95190500  1
  N  570  1  0.10488800  0.00741600  0.97861200  1
  N  571  1  0.31880400  0.99108700  0.91326700  1
  N  572  1  0.32388000  0.93926800  0.95123800  1
  N  591  1  0.60145800  0.06910400  0.80932400  1
  N  592  1  0.64983500  0.00765300  0.77943600  1
  N  593  1  0.43542700  0.98383200  0.84469800  1
  N  594  1  0.43956300  0.93633700  0.80497000  1
  N  613  1  0.60221900  0.69036200  0.95018800  1
  N  614  1  0.64930200  0.75186200  0.98020400  1
  N  615  1  0.43591100  0.77526300  0.91461900  1
  N  616  1  0.43891700  0.82275600  0.95434000  1
  N  635  1  0.85160300  0.32126500  0.20112600  1
  N  636  1  0.89755900  0.25836000  0.23032900  1
  N  637  1  0.68994100  0.24094600  0.16327300  1
  N  638  1  0.68377100  0.18955800  0.20141100  1
  N  657  1  0.85369300  0.93772400  0.05833900  1
  N  658  1  0.89900400  0.00061900  0.02917300  1
  N  659  1  0.69038300  0.01764600  0.09603600  1
  N  660  1  0.68445000  0.06903900  0.05790000  1
  N  679  1  0.40774300  0.94005700  0.19990500  1
  N  680  1  0.35937300  0.00145900  0.22982500  1
  N  681  1  0.57387800  0.02533600  0.16459700  1
  N  682  1  0.56965300  0.07282700  0.20432800  1
  N  701  1  0.40871900  0.31852400  0.05912500  1
  N  702  1  0.36087700  0.25719000  0.02906700  1
  N  703  1  0.57416400  0.23324500  0.09460700  1
  N  704  1  0.57058700  0.18577200  0.05487000  1
  N  709  1  0.41947800  0.37359300  0.31129200  1
  N  712  1  0.39126800  0.35503500  0.30878200  1
  N  721  1  0.42068600  0.38512800  0.44789200  1
  N  724  1  0.39248000  0.40366900  0.45044000  1
  N  733  1  0.58986200  0.63556000  0.69800300  1
  N  736  1  0.61807500  0.65411100  0.70052200  1
  N  745  1  0.58800800  0.62330300  0.56125800  1
  N  748  1  0.61599200  0.60469300  0.55869500  1
  N  757  1  0.91928000  0.37442200  0.81119800  1
  N  760  1  0.89120600  0.35581300  0.80870300  1
  N  769  1  0.92090200  0.38521000  0.94805800  1
  N  772  1  0.89268400  0.40375100  0.95060000  1
  N  781  1  0.08997400  0.63476200  0.19815800  1
  N  784  1  0.11807700  0.65336100  0.20065200  1
  N  793  1  0.08776600  0.62322000  0.06109800  1
  N  796  1  0.11576400  0.60460900  0.05854200  1
  N  805  1  0.92023400  0.87371300  0.31170900  1
  N  808  1  0.89262400  0.85495800  0.30918000  1
  N  817  1  0.91855600  0.88440400  0.44745700  1
  N  820  1  0.89087600  0.90314600  0.44995000  1
  N  829  1  0.08914800  0.13543400  0.69758700  1
  N  832  1  0.11676500  0.15418200  0.70012700  1
  N  841  1  0.09014000  0.12403600  0.56167400  1
  N  844  1  0.11759700  0.10522600  0.55916200  1
  N  853  1  0.42007800  0.87452500  0.81157800  1
  N  856  1  0.39259300  0.85572200  0.80906900  1
  N  865  1  0.41876900  0.88448800  0.94761300  1
  N  868  1  0.39107300  0.90322800  0.95009700  1
  N  877  1  0.58925000  0.13463400  0.19772000  1
  N  880  1  0.61674600  0.15343100  0.20023900  1
  N  889  1  0.58995900  0.12395700  0.06151400  1
  N  892  1  0.61742900  0.10515000  0.05900700  1
  N  901  1  0.01957900  0.26124300  0.24556300  1
  N  904  1  0.04577000  0.25893500  0.25705000  1
  N  913  1  0.02139200  0.49701400  0.51402800  1
  N  916  1  0.04745800  0.49944700  0.50252600  1
  N  925  1  0.73789700  0.49661100  0.24533700  1
  N  928  1  0.71206700  0.49887500  0.25689100  1
  N  937  1  0.73972500  0.26153200  0.51345300  1
  N  940  1  0.71397000  0.25948700  0.50187400  1
  N  949  1  0.98976900  0.74801000  0.76374100  1
  N  952  1  0.96357800  0.75031200  0.75225300  1
  N  961  1  0.27121500  0.51263100  0.76390700  1
  N  964  1  0.29705100  0.51033700  0.75235600  1
  N  973  1  0.27048300  0.74766900  0.49581000  1
  N  976  1  0.29622100  0.74970100  0.50739100  1
  N  985  1  0.52042400  0.26128800  0.74556500  1
  N  988  1  0.54661100  0.25894900  0.75705000  1
  N  997  1  0.52140300  0.49704900  0.01404200  1
  N  1000  1  0.54747400  0.49947700  0.00254100  1
  N  1009  1  0.23978000  0.26155700  0.01342700  1
  N  1012  1  0.21403600  0.25953000  0.00184700  1
  N  1021  1  0.48897200  0.74799200  0.26373400  1
  N  1024  1  0.46278500  0.75031200  0.25224900  1
  N  1033  1  0.77041900  0.74762000  0.99583900  1
  N  1036  1  0.79615900  0.74965900  0.00741700  1
  N  1045  1  0.52146300  0.99802000  0.51421800  1
  N  1048  1  0.54777400  0.99997900  0.50273200  1
  N  1057  1  0.23782300  0.99725500  0.24520600  1
  N  1060  1  0.21181000  0.99924200  0.25674100  1
  N  1069  1  0.77138000  0.01182600  0.76406000  1
  N  1072  1  0.79738300  0.00987400  0.75252100  1
  N  1081  1  0.02140400  0.99790500  0.01418700  1
  N  1084  1  0.04772500  0.99991200  0.00270600  1
  N  1093  1  0.08234600  0.12643600  0.31512700  1
  N  1096  1  0.10557400  0.14700700  0.31489700  1
  N  1105  1  0.08527500  0.63263200  0.44413400  1
  N  1108  1  0.10804200  0.61195200  0.44446400  1
  N  1117  1  0.67136100  0.63021000  0.31594300  1
  N  1120  1  0.64860000  0.60952600  0.31591200  1
  N  1129  1  0.67372900  0.12888900  0.44232300  1
  N  1132  1  0.65092300  0.14956200  0.44208900  1
  N  1141  1  0.92687600  0.88273000  0.69412700  1
  N  1144  1  0.90368000  0.86215000  0.69435700  1
  N  1153  1  0.92636600  0.37614000  0.56551800  1
  N  1156  1  0.90384900  0.39688600  0.56531400  1
  N  1165  1  0.33788000  0.37892700  0.69333400  1
  N  1168  1  0.36062000  0.39961600  0.69336600  1
  N  1177  1  0.33808100  0.88011200  0.56723200  1
  N  1180  1  0.36057300  0.85936100  0.56733500  1
  N  1189  1  0.58497500  0.12653600  0.81541800  1
  N  1192  1  0.60789400  0.14717800  0.81506300  1
  N  1201  1  0.58522700  0.63266400  0.94415000  1
  N  1204  1  0.60801400  0.61198900  0.94448800  1
  N  1213  1  0.17366800  0.63063200  0.81625900  1
  N  1216  1  0.15115400  0.60988800  0.81635000  1
  N  1225  1  0.17373800  0.12894900  0.94234700  1
  N  1228  1  0.15091700  0.14961800  0.94211000  1
  N  1237  1  0.42431200  0.88261800  0.19382200  1
  N  1240  1  0.40142300  0.86196800  0.19417600  1
  N  1249  1  0.42639800  0.37610800  0.06548100  1
  N  1252  1  0.40385900  0.39684800  0.06526900  1
  N  1261  1  0.83554100  0.37851900  0.19303400  1
  N  1264  1  0.85803500  0.39926900  0.19294700  1
  N  1273  1  0.83806600  0.88005100  0.06723100  1
  N  1276  1  0.86057600  0.85930400  0.06733500  1
  N  1285  1  0.40488700  0.25385400  0.38088200  1
  N  1288  1  0.37750300  0.25822400  0.36978000  1
  N  1297  1  0.40454200  0.50486200  0.37821500  1
  N  1300  1  0.37736800  0.50044200  0.38935000  1
  N  1309  1  0.60513200  0.75488600  0.62829400  1
  N  1312  1  0.63246300  0.75058700  0.63941500  1
  N  1321  1  0.60518800  0.50395600  0.63119600  1
  N  1324  1  0.63233900  0.50831000  0.62004900  1
  N  1333  1  0.90524100  0.25424400  0.88087000  1
  N  1336  1  0.87796200  0.25869600  0.86976100  1
  N  1345  1  0.90494800  0.50521000  0.87837300  1
  N  1348  1  0.87779000  0.50072200  0.88950200  1
  N  1357  1  0.10479600  0.75449200  0.12831100  1
  N  1360  1  0.13203100  0.75011300  0.13943700  1
  N  1369  1  0.10479000  0.50360900  0.13104800  1
  N  1372  1  0.13192400  0.50802700  0.11990600  1
  N  1381  1  0.90523700  0.75270400  0.38103000  1
  N  1384  1  0.87814600  0.75707600  0.36987300  1
  N  1393  1  0.90495600  0.00553300  0.37820300  1
  N  1396  1  0.87784600  0.00115100  0.38935300  1
  N  1405  1  0.10481900  0.25602500  0.62815100  1
  N  1408  1  0.13186400  0.25172800  0.63932600  1
  N  1417  1  0.10472400  0.00330100  0.63118700  1
  N  1420  1  0.13180000  0.00762000  0.62002200  1
  N  1429  1  0.40564100  0.75311500  0.88100200  1
  N  1432  1  0.37864800  0.75756400  0.86983800  1
  N  1441  1  0.40531900  0.00585800  0.87834400  1
  N  1444  1  0.37822400  0.00141800  0.88948900  1
  N  1453  1  0.60440400  0.25562800  0.12817300  1
  N  1456  1  0.63134100  0.25125000  0.13935700  1
  N  1465  1  0.60438500  0.00298900  0.13104600  1
  N  1468  1  0.63145000  0.00737000  0.11988600  1
