# generated using pymatgen
data_H19C22N4O
_symmetry_space_group_name_H-M   'P 1'
_cell_length_a   28.58290000
_cell_length_b   77.69620000
_cell_length_c   77.69620000
_cell_angle_alpha   90.00000000
_cell_angle_beta   90.00000000
_cell_angle_gamma   90.00000000
_symmetry_Int_Tables_number   1
_chemical_formula_structural   H19C22N4O
_chemical_formula_sum   'H1216 C1408 N256 O64'
_cell_volume   172546.37797963
_cell_formula_units_Z   64
loop_
 _symmetry_equiv_pos_site_id
 _symmetry_equiv_pos_as_xyz
  1  'x, y, z'
loop_
 _atom_site_type_symbol
 _atom_site_label
 _atom_site_symmetry_multiplicity
 _atom_site_fract_x
 _atom_site_fract_y
 _atom_site_fract_z
 _atom_site_occupancy
  H  7  1  0.23760600  0.10985900  0.01329500  1
  H  8  1  0.11010600  0.08651300  0.02573800  1
  H  15  1  0.39393900  0.08603000  0.97213500  1
  H  16  1  0.29823400  0.06269400  0.00573100  1
  H  19  1  0.22019500  0.04805200  0.99948800  1
  H  20  1  0.26288100  0.12187000  0.98443000  1
  H  22  1  0.41820500  0.06546600  0.99759600  1
  H  23  1  0.39709800  0.05389300  0.97957200  1
  H  25  1  0.37866400  0.11119400  0.95723000  1
  H  26  1  0.34627500  0.12511100  0.97053500  1
  H  28  1  0.15458900  0.12659400  0.02044900  1
  H  29  1  0.12190000  0.11452600  0.03536900  1
  H  31  1  0.08300300  0.06378500  0.00663500  1
  H  32  1  0.11550900  0.05155700  0.02162200  1
  H  39  1  0.73760700  0.38987800  0.98645100  1
  H  40  1  0.61010700  0.41322400  0.97400600  1
  H  47  1  0.89393500  0.41370500  0.02761300  1
  H  48  1  0.79823700  0.43704100  0.99401400  1
  H  51  1  0.72020100  0.45168400  0.00025700  1
  H  52  1  0.76287700  0.37786700  0.01531700  1
  H  54  1  0.91821100  0.43426700  0.00215200  1
  H  55  1  0.89709700  0.44584300  0.02017400  1
  H  57  1  0.87865300  0.38854300  0.04252100  1
  H  58  1  0.84627000  0.37462600  0.02921400  1
  H  60  1  0.65459500  0.37314200  0.97929500  1
  H  61  1  0.62189700  0.38521100  0.96437800  1
  H  63  1  0.58300700  0.43595300  0.99310900  1
  H  64  1  0.61551200  0.44818000  0.97812100  1
  H  71  1  0.48775700  0.23643400  0.85959700  1
  H  72  1  0.36014300  0.22403400  0.83631600  1
  H  79  1  0.64401600  0.27761600  0.83576200  1
  H  80  1  0.54830400  0.24403100  0.81241000  1
  H  83  1  0.47017700  0.25025700  0.79780400  1
  H  84  1  0.51302400  0.26528300  0.87161500  1
  H  86  1  0.66831000  0.25218700  0.81518300  1
  H  87  1  0.64714700  0.27019700  0.80360300  1
  H  89  1  0.62875500  0.29249800  0.86094400  1
  H  90  1  0.59645600  0.27915300  0.87485000  1
  H  92  1  0.40472900  0.22933900  0.87636600  1
  H  93  1  0.37199600  0.21441200  0.86432500  1
  H  95  1  0.33300700  0.24315600  0.81360400  1
  H  96  1  0.36538700  0.22813500  0.80137100  1
  H  103  1  0.98776400  0.26330100  0.14014300  1
  H  104  1  0.86015200  0.27570500  0.16342500  1
  H  111  1  0.14400800  0.22211100  0.16397700  1
  H  112  1  0.04831500  0.25570100  0.18733000  1
  H  115  1  0.97018300  0.24947800  0.20193700  1
  H  116  1  0.01302300  0.23445000  0.12812500  1
  H  118  1  0.16831400  0.24753800  0.18455600  1
  H  119  1  0.14714900  0.22953000  0.19613600  1
  H  121  1  0.12873600  0.20722400  0.13879800  1
  H  122  1  0.09644800  0.22057200  0.12489100  1
  H  124  1  0.90473100  0.27039700  0.12337500  1
  H  125  1  0.87200900  0.28532800  0.13541600  1
  H  127  1  0.83301300  0.25658100  0.18613700  1
  H  128  1  0.86539300  0.27160300  0.19836900  1
  H  135  1  0.76179900  0.88954000  0.98744100  1
  H  136  1  0.88609100  0.91417700  0.97309800  1
  H  143  1  0.60511800  0.91427300  0.02905700  1
  H  144  1  0.69593800  0.93670000  0.99313400  1
  H  147  1  0.77304000  0.95288600  0.99691400  1
  H  148  1  0.73627000  0.87860300  0.01636200  1
  H  150  1  0.57620200  0.93362500  0.00456400  1
  H  151  1  0.60250500  0.94693000  0.02023700  1
  H  153  1  0.62218400  0.88946700  0.04418100  1
  H  154  1  0.65308000  0.87544600  0.03052300  1
  H  156  1  0.84496800  0.87344200  0.98062600  1
  H  157  1  0.87774300  0.88527100  0.96553600  1
  H  159  1  0.90331100  0.94245700  0.97989900  1
  H  160  1  0.85278800  0.95534400  0.98036700  1
  H  167  1  0.26180400  0.61019700  0.01229100  1
  H  168  1  0.38609200  0.58555600  0.02663400  1
  H  175  1  0.10511100  0.58546900  0.97068100  1
  H  176  1  0.19593900  0.56303800  0.00659800  1
  H  179  1  0.27303600  0.54685200  0.00281700  1
  H  180  1  0.23627300  0.62113500  0.98337100  1
  H  182  1  0.07620000  0.56611500  0.99517400  1
  H  183  1  0.10249400  0.55281200  0.97949700  1
  H  185  1  0.12217300  0.61027700  0.95556000  1
  H  186  1  0.15308300  0.62429600  0.96921600  1
  H  188  1  0.34497100  0.62629300  0.01910700  1
  H  189  1  0.37774700  0.61446400  0.03419400  1
  H  191  1  0.40330500  0.55727800  0.01983500  1
  H  192  1  0.35277800  0.54439100  0.01936400  1
  H  199  1  0.51244000  0.76331100  0.13968900  1
  H  200  1  0.63980000  0.77566700  0.16318200  1
  H  207  1  0.35622800  0.72185100  0.16332800  1
  H  208  1  0.45144600  0.75553900  0.18679900  1
  H  211  1  0.52944000  0.74935300  0.20149200  1
  H  212  1  0.48724700  0.73447500  0.12757800  1
  H  214  1  0.33154900  0.74720800  0.18395100  1
  H  215  1  0.35288300  0.72921600  0.19551400  1
  H  217  1  0.37178600  0.70703300  0.13812300  1
  H  218  1  0.40396200  0.72046400  0.12425900  1
  H  220  1  0.59538800  0.77044600  0.12302000  1
  H  221  1  0.62844700  0.78520700  0.13513800  1
  H  223  1  0.66666667  0.75651400  0.18589600  1
  H  224  1  0.63420500  0.77153300  0.19809100  1
  H  231  1  0.01243500  0.73642900  0.86004600  1
  H  232  1  0.13979400  0.72407100  0.83655300  1
  H  239  1  0.85623400  0.77789800  0.83640600  1
  H  240  1  0.95143800  0.74420200  0.81293700  1
  H  243  1  0.02943500  0.75038700  0.79824100  1
  H  244  1  0.98724600  0.76526800  0.87215600  1
  H  246  1  0.83154400  0.75253900  0.81578400  1
  H  247  1  0.85288200  0.77053200  0.80422200  1
  H  249  1  0.87180200  0.79272000  0.86160800  1
  H  250  1  0.90396200  0.77928700  0.87547500  1
  H  252  1  0.09538300  0.72929300  0.87671500  1
  H  253  1  0.12843600  0.71453200  0.86459700  1
  H  255  1  0.16668500  0.74322600  0.81383900  1
  H  256  1  0.13420200  0.72820600  0.80164500  1
  H  263  1  0.73741100  0.60996000  0.51334300  1
  H  264  1  0.61001600  0.58648700  0.52568200  1
  H  271  1  0.89352500  0.58630700  0.47180300  1
  H  272  1  0.79834200  0.56282700  0.50549700  1
  H  275  1  0.72030300  0.54816700  0.49933600  1
  H  276  1  0.76264600  0.62209100  0.48452400  1
  H  278  1  0.91824600  0.56564200  0.49710800  1
  H  279  1  0.89679300  0.55409400  0.47912500  1
  H  281  1  0.87803000  0.61155100  0.45704200  1
  H  282  1  0.84589900  0.62540600  0.47049300  1
  H  284  1  0.65446900  0.62664300  0.52047100  1
  H  285  1  0.62136600  0.61452800  0.53521800  1
  H  287  1  0.58310100  0.56379200  0.50649300  1
  H  288  1  0.61549100  0.55160200  0.52154400  1
  H  295  1  0.23740500  0.88977600  0.48640600  1
  H  296  1  0.11001500  0.91325200  0.47406600  1
  H  303  1  0.39351900  0.91342900  0.52794600  1
  H  304  1  0.29834200  0.93690700  0.49424900  1
  H  307  1  0.22030700  0.95156900  0.50041200  1
  H  308  1  0.26263900  0.87764500  0.51522600  1
  H  310  1  0.41824700  0.93409100  0.50264000  1
  H  311  1  0.39679400  0.94564300  0.52061900  1
  H  313  1  0.37802000  0.88818800  0.54271100  1
  H  314  1  0.34589800  0.87433100  0.52925800  1
  H  316  1  0.15447300  0.87309400  0.47927800  1
  H  317  1  0.12135900  0.88520800  0.46453200  1
  H  319  1  0.08310200  0.93594700  0.49325200  1
  H  320  1  0.11549700  0.94813600  0.47820100  1
  H  327  1  0.98799400  0.73739800  0.36010600  1
  H  328  1  0.86369300  0.72306200  0.33547300  1
  H  335  1  0.14460700  0.77907900  0.33538300  1
  H  336  1  0.05378800  0.74318400  0.31291600  1
  H  339  1  0.97665600  0.74693900  0.29677000  1
  H  340  1  0.01357300  0.76628700  0.37107900  1
  H  342  1  0.17352900  0.75466100  0.31596700  1
  H  343  1  0.14712000  0.77033000  0.30268700  1
  H  345  1  0.12766000  0.79410600  0.36025600  1
  H  346  1  0.09672000  0.78043700  0.37425000  1
  H  348  1  0.90482900  0.73058000  0.37621000  1
  H  349  1  0.87202300  0.71550500  0.36437800  1
  H  351  1  0.84646900  0.72985600  0.30719600  1
  H  352  1  0.89698500  0.73035700  0.29430900  1
  H  359  1  0.48800900  0.76233100  0.63963000  1
  H  360  1  0.36370800  0.77667200  0.66425900  1
  H  367  1  0.64460000  0.72064300  0.66436700  1
  H  368  1  0.55379400  0.75655100  0.68682000  1
  H  371  1  0.47666000  0.75279600  0.70296700  1
  H  372  1  0.51358800  0.73343600  0.62866300  1
  H  374  1  0.67353300  0.74506300  0.68377700  1
  H  375  1  0.64710100  0.72940600  0.69706500  1
  H  377  1  0.62764200  0.70560300  0.63950200  1
  H  378  1  0.59673900  0.71927600  0.62550000  1
  H  380  1  0.40484800  0.76915100  0.62352300  1
  H  381  1  0.37204100  0.78422600  0.63535400  1
  H  383  1  0.34648000  0.76988500  0.69253600  1
  H  384  1  0.39699700  0.76937900  0.70542600  1
  H  391  1  0.26208200  0.38944900  0.48738800  1
  H  392  1  0.38614400  0.41427800  0.47311300  1
  H  399  1  0.10553700  0.41395600  0.52935400  1
  H  400  1  0.19585600  0.43657200  0.49338400  1
  H  403  1  0.27283700  0.45278400  0.49709100  1
  H  404  1  0.23655600  0.37836500  0.51624500  1
  H  406  1  0.07624100  0.43343200  0.50503100  1
  H  407  1  0.10278800  0.44670000  0.52067700  1
  H  409  1  0.12280100  0.38905200  0.54431000  1
  H  410  1  0.15351200  0.37510700  0.53052000  1
  H  412  1  0.34523700  0.37344600  0.48056500  1
  H  413  1  0.37830700  0.38535200  0.46563400  1
  H  415  1  0.40300000  0.44257600  0.47988600  1
  H  416  1  0.35236200  0.45539200  0.48047400  1
  H  423  1  0.76209300  0.11028600  0.51234300  1
  H  424  1  0.88614300  0.08545100  0.52661500  1
  H  431  1  0.60552700  0.08579500  0.47038200  1
  H  432  1  0.69585100  0.06316600  0.50634300  1
  H  435  1  0.77282400  0.04695200  0.50263600  1
  H  436  1  0.73656800  0.12137500  0.48348800  1
  H  438  1  0.57623700  0.06631500  0.49470500  1
  H  439  1  0.60276000  0.05305200  0.47904900  1
  H  441  1  0.62279300  0.11070000  0.45543200  1
  H  442  1  0.65352500  0.12464100  0.46921900  1
  H  444  1  0.84525200  0.12628600  0.51916600  1
  H  445  1  0.87831700  0.11437700  0.53409600  1
  H  447  1  0.90299200  0.05715300  0.51984000  1
  H  448  1  0.85234700  0.04434000  0.51925200  1
  H  455  1  0.01221800  0.26235400  0.63917400  1
  H  456  1  0.13619600  0.27663500  0.66405700  1
  H  463  1  0.85554100  0.22043500  0.66365800  1
  H  464  1  0.94589900  0.25639300  0.68627000  1
  H  467  1  0.02280200  0.25265500  0.70251700  1
  H  468  1  0.98666900  0.23348500  0.62809300  1
  H  470  1  0.82630000  0.24480000  0.68312600  1
  H  471  1  0.85275300  0.22911300  0.69637500  1
  H  473  1  0.87279300  0.20547100  0.63876600  1
  H  474  1  0.90366400  0.21920900  0.62481800  1
  H  476  1  0.09537300  0.26921500  0.62319900  1
  H  477  1  0.12841800  0.28413400  0.63513100  1
  H  479  1  0.15300700  0.26982700  0.69235300  1
  H  480  1  0.10232300  0.26927800  0.70514800  1
  H  487  1  0.51221600  0.23739400  0.36056100  1
  H  488  1  0.63620000  0.22311400  0.33567900  1
  H  495  1  0.35554500  0.27931500  0.33606700  1
  H  496  1  0.44590000  0.24334800  0.31346600  1
  H  499  1  0.52280300  0.24708900  0.29721800  1
  H  500  1  0.48666200  0.26626500  0.37163900  1
  H  502  1  0.32629700  0.25494900  0.31660500  1
  H  503  1  0.35276700  0.27062500  0.30334800  1
  H  505  1  0.37280700  0.29429100  0.36095300  1
  H  506  1  0.40364800  0.28055000  0.37490600  1
  H  508  1  0.59537100  0.23053300  0.37653700  1
  H  509  1  0.62841900  0.21561400  0.36460500  1
  H  511  1  0.65301700  0.22992600  0.30738400  1
  H  512  1  0.60233300  0.23046800  0.29458800  1
  H  519  1  0.03153800  0.04604000  0.98809000  1
  H  528  1  0.89057900  0.01409600  0.98879100  1
  H  529  1  0.94812800  0.03638800  0.98570200  1
  H  530  1  0.87077000  0.98360300  0.99637200  1
  H  532  1  0.17277800  0.01853400  0.00624700  1
  H  533  1  0.15804500  0.99754000  0.99942100  1
  H  534  1  0.14652800  0.00407100  0.02089300  1
  H  536  1  0.02494300  0.94597200  0.01526400  1
  H  537  1  0.97973800  0.93555800  0.00373500  1
  H  538  1  0.97150900  0.94131400  0.02570300  1
  H  540  1  0.89459200  0.94145400  0.01230100  1
  H  542  1  0.12175600  0.04891900  0.98361600  1
  H  549  1  0.53154200  0.45369900  0.01165100  1
  H  558  1  0.39058400  0.48564000  0.01094400  1
  H  559  1  0.44813600  0.46335100  0.01403900  1
  H  560  1  0.37077500  0.51613500  0.00336600  1
  H  562  1  0.67278500  0.48120500  0.99349800  1
  H  563  1  0.65804100  0.50219800  0.00032400  1
  H  564  1  0.64654500  0.49566800  0.97885000  1
  H  566  1  0.52494100  0.55376200  0.98446000  1
  H  567  1  0.47974200  0.56417900  0.99598800  1
  H  568  1  0.47149900  0.55841700  0.97402300  1
  H  570  1  0.39459700  0.55828100  0.98743300  1
  H  572  1  0.62176100  0.45082100  0.01612800  1
  H  579  1  0.28149000  0.26167000  0.79583400  1
  H  588  1  0.14048500  0.26097900  0.76391400  1
  H  589  1  0.19806900  0.26407200  0.78619300  1
  H  590  1  0.12062200  0.25337000  0.73342800  1
  H  592  1  0.42265600  0.24344900  0.76831800  1
  H  593  1  0.40790200  0.25025800  0.74732000  1
  H  594  1  0.39635000  0.22879600  0.75387600  1
  H  596  1  0.27471300  0.23438300  0.69580200  1
  H  597  1  0.22953500  0.24591600  0.68537700  1
  H  598  1  0.22125100  0.22395700  0.69116100  1
  H  600  1  0.14440400  0.23739500  0.69128300  1
  H  602  1  0.37174400  0.26613400  0.79868400  1
  H  609  1  0.78149300  0.23807000  0.20390400  1
  H  618  1  0.64048200  0.23877100  0.23582100  1
  H  619  1  0.69806900  0.23567000  0.21354500  1
  H  620  1  0.62061300  0.24638100  0.26630500  1
  H  622  1  0.92265800  0.25628800  0.23142300  1
  H  623  1  0.90790500  0.24947800  0.25242200  1
  H  624  1  0.89635200  0.27094100  0.24586500  1
  H  626  1  0.77470900  0.26535000  0.30393900  1
  H  627  1  0.72951400  0.25382500  0.31436000  1
  H  628  1  0.72125800  0.27578400  0.30857900  1
  H  630  1  0.64439000  0.26235800  0.30845000  1
  H  632  1  0.87174600  0.23360300  0.20105700  1
  H  639  1  0.95900200  0.45549200  0.98145200  1
  H  648  1  0.09894800  0.48793100  0.97768000  1
  H  649  1  0.03967200  0.46625800  0.97454700  1
  H  650  1  0.12403000  0.51657200  0.98946200  1
  H  652  1  0.83073900  0.47858300  0.01346500  1
  H  653  1  0.84359700  0.50056800  0.01018000  1
  H  654  1  0.86487900  0.48981900  0.02875000  1
  H  656  1  0.98984900  0.54627100  0.03030800  1
  H  657  1  0.02405600  0.56030700  0.01768400  1
  H  658  1  0.04940800  0.54938700  0.03548500  1
  H  660  1  0.12062400  0.55103600  0.01713200  1
  H  662  1  0.86943400  0.45160800  0.98385400  1
  H  669  1  0.45899200  0.04423800  0.01829000  1
  H  678  1  0.59895000  0.01180500  0.02205300  1
  H  679  1  0.53966600  0.03347400  0.02519300  1
  H  680  1  0.62403100  0.98316300  0.01027200  1
  H  682  1  0.33072900  0.02114800  0.98628000  1
  H  683  1  0.34359900  0.99916500  0.98956400  1
  H  684  1  0.36485500  0.00991300  0.97099100  1
  H  686  1  0.48984600  0.95346200  0.96942800  1
  H  687  1  0.52404800  0.93943100  0.98205700  1
  H  688  1  0.54939900  0.95034100  0.96425100  1
  H  690  1  0.62062000  0.94869800  0.98260000  1
  H  692  1  0.36942400  0.04812100  0.01589000  1
  H  699  1  0.70914500  0.23146900  0.79398900  1
  H  708  1  0.84889700  0.22745300  0.76146300  1
  H  709  1  0.78973900  0.22447300  0.78320000  1
  H  710  1  0.87391600  0.23910000  0.73275400  1
  H  712  1  0.58093900  0.26348300  0.77085800  1
  H  713  1  0.59365300  0.26008100  0.74888000  1
  H  714  1  0.61509600  0.27868700  0.75952200  1
  H  716  1  0.73977200  0.27989800  0.70297400  1
  H  717  1  0.77383500  0.26720000  0.68895900  1
  H  718  1  0.79933900  0.28502000  0.69980000  1
  H  720  1  0.87060600  0.26675400  0.69830600  1
  H  722  1  0.61952500  0.23387400  0.79785200  1
  H  729  1  0.20915500  0.26825500  0.20574900  1
  H  738  1  0.34890800  0.27227100  0.23827500  1
  H  739  1  0.28974500  0.27525400  0.21654000  1
  H  740  1  0.37392000  0.26062500  0.26698500  1
  H  742  1  0.08093900  0.23624800  0.22888200  1
  H  743  1  0.09364300  0.23965800  0.25086000  1
  H  744  1  0.11509200  0.22104800  0.24022700  1
  H  746  1  0.23975100  0.21984700  0.29677800  1
  H  747  1  0.27384300  0.23254200  0.31078700  1
  H  748  1  0.29931100  0.21471300  0.29994800  1
  H  750  1  0.37060000  0.23297900  0.30144500  1
  H  752  1  0.11953600  0.26585300  0.20188900  1
  H  759  1  0.71801100  0.73796800  0.20365300  1
  H  768  1  0.85898000  0.73867700  0.23558300  1
  H  769  1  0.80141100  0.73557400  0.21330100  1
  H  770  1  0.87882400  0.74629400  0.26606200  1
  H  772  1  0.57682800  0.75622700  0.23112600  1
  H  773  1  0.59152900  0.74942900  0.25213200  1
  H  774  1  0.60312400  0.77088500  0.24556700  1
  H  776  1  0.72472100  0.76527300  0.30368500  1
  H  777  1  0.76990200  0.75374200  0.31411100  1
  H  778  1  0.77818300  0.77570100  0.30832800  1
  H  780  1  0.85504400  0.76225700  0.30821100  1
  H  782  1  0.62777500  0.73353700  0.20077000  1
  H  789  1  0.21800500  0.76177000  0.79608100  1
  H  798  1  0.35897400  0.76106200  0.76415100  1
  H  799  1  0.30140300  0.76416700  0.78643200  1
  H  800  1  0.37881800  0.75345100  0.73367000  1
  H  802  1  0.07682100  0.74351100  0.76860600  1
  H  803  1  0.09153100  0.75031200  0.74760200  1
  H  804  1  0.10311300  0.72885400  0.75416600  1
  H  806  1  0.22472600  0.73445400  0.69605100  1
  H  807  1  0.26989600  0.74598600  0.68562300  1
  H  808  1  0.27819400  0.72403000  0.69141100  1
  H  810  1  0.35504200  0.73748100  0.69152400  1
  H  812  1  0.12776800  0.76620100  0.79896200  1
  H  819  1  0.29051300  0.76789900  0.20513900  1
  H  828  1  0.15073700  0.77190300  0.23765100  1
  H  829  1  0.20990000  0.77488000  0.21591500  1
  H  830  1  0.12573700  0.76027700  0.26636800  1
  H  832  1  0.41880400  0.73596700  0.22831600  1
  H  833  1  0.40603700  0.73938800  0.25028800  1
  H  834  1  0.38470600  0.72075300  0.23966600  1
  H  836  1  0.25988700  0.71950200  0.29617700  1
  H  837  1  0.22585100  0.73222000  0.31018200  1
  H  838  1  0.20032100  0.71439000  0.29936600  1
  H  840  1  0.12908200  0.73269400  0.30087800  1
  H  842  1  0.38014100  0.76556600  0.20132300  1
  H  849  1  0.79049800  0.73185000  0.79459700  1
  H  858  1  0.65072900  0.72784900  0.76208400  1
  H  859  1  0.70989100  0.72486800  0.78381800  1
  H  860  1  0.62573200  0.73947100  0.73336500  1
  H  862  1  0.91880300  0.76377600  0.77141700  1
  H  863  1  0.90605000  0.76034600  0.74944700  1
  H  864  1  0.88471200  0.77898500  0.76006000  1
  H  866  1  0.75991400  0.78022500  0.70354500  1
  H  867  1  0.72584400  0.76751200  0.68954600  1
  H  868  1  0.70035300  0.78535000  0.70036000  1
  H  870  1  0.62909400  0.76704700  0.69884500  1
  H  872  1  0.88012900  0.73417900  0.79841100  1
  H  879  1  0.53175600  0.54601000  0.48797900  1
  H  888  1  0.39074500  0.51410500  0.48868200  1
  H  889  1  0.44834900  0.53637200  0.48557200  1
  H  890  1  0.37084100  0.48363800  0.49632500  1
  H  892  1  0.67287500  0.51852700  0.50629100  1
  H  893  1  0.65815700  0.49752000  0.49950100  1
  H  894  1  0.64653800  0.50409900  0.52095000  1
  H  896  1  0.52486400  0.44599900  0.51535600  1
  H  897  1  0.47968300  0.43557300  0.50382600  1
  H  898  1  0.47138800  0.44137200  0.52578000  1
  H  900  1  0.39457200  0.44148500  0.51231300  1
  H  902  1  0.62202000  0.54886600  0.48355600  1
  H  909  1  0.03175700  0.95372700  0.51176400  1
  H  918  1  0.89073700  0.98562900  0.51104700  1
  H  919  1  0.94834500  0.96336400  0.51416700  1
  H  920  1  0.87083000  0.01609500  0.50340300  1
  H  922  1  0.17288000  0.98121300  0.49346000  1
  H  923  1  0.15814900  0.00222000  0.50024800  1
  H  924  1  0.14654900  0.99563900  0.47879700  1
  H  926  1  0.02485300  0.05373600  0.48437100  1
  H  927  1  0.97966400  0.06416200  0.49589800  1
  H  928  1  0.97137600  0.05835700  0.47394500  1
  H  930  1  0.89455700  0.05824600  0.48741100  1
  H  932  1  0.12202000  0.95087300  0.51619000  1
  H  939  1  0.45930300  0.95524200  0.48193500  1
  H  948  1  0.59887000  0.98784800  0.47768400  1
  H  949  1  0.53983400  0.96604500  0.47486400  1
  H  950  1  0.62378700  0.01663400  0.48916300  1
  H  952  1  0.33103400  0.97846500  0.51384400  1
  H  953  1  0.34363200  0.00042800  0.51028500  1
  H  954  1  0.36511800  0.98993600  0.52896900  1
  H  956  1  0.48960800  0.04656500  0.52982900  1
  H  957  1  0.52355200  0.06053100  0.51703600  1
  H  958  1  0.54917200  0.04981100  0.53490800  1
  H  960  1  0.62050800  0.05115800  0.51669800  1
  H  962  1  0.36963400  0.95144700  0.48425900  1
  H  969  1  0.95930200  0.54448600  0.51780700  1
  H  978  1  0.09887300  0.51188300  0.52204700  1
  H  979  1  0.03982900  0.53368200  0.52487600  1
  H  980  1  0.12379600  0.48310200  0.51056200  1
  H  982  1  0.83103000  0.52126700  0.48589500  1
  H  983  1  0.84362100  0.49930400  0.48945500  1
  H  984  1  0.86511300  0.50979600  0.47077100  1
  H  986  1  0.98960000  0.45316800  0.46990500  1
  H  987  1  0.02357700  0.43920400  0.48269000  1
  H  988  1  0.04916000  0.44992900  0.46481400  1
  H  990  1  0.12051000  0.44857400  0.48302600  1
  H  992  1  0.86963000  0.54828000  0.51548300  1
  H  999  1  0.40547400  0.21053300  0.90276900  1
  H  1008  1  0.33063000  0.18078100  0.94830300  1
  H  1009  1  0.36498500  0.20249000  0.93029300  1
  H  1010  1  0.31066400  0.14976000  0.95337600  1
  H  1012  1  0.45001500  0.17890800  0.85254700  1
  H  1013  1  0.40602700  0.16300000  0.85397000  1
  H  1014  1  0.46204300  0.15924600  0.86307200  1
  H  1016  1  0.36799700  0.10786100  0.90054500  1
  H  1017  1  0.31604600  0.10213700  0.91146000  1
  H  1018  1  0.37122600  0.09998800  0.92186100  1
  H  1020  1  0.30249300  0.10528400  0.94226400  1
  H  1022  1  0.46937600  0.21084900  0.87667600  1
  H  1029  1  0.90545900  0.28920200  0.09697500  1
  H  1038  1  0.83058200  0.31895500  0.05144800  1
  H  1039  1  0.86496300  0.29724700  0.06945200  1
  H  1040  1  0.81064300  0.34997900  0.04637200  1
  H  1042  1  0.95005600  0.32082800  0.14718700  1
  H  1043  1  0.90607500  0.33673700  0.14576800  1
  H  1044  1  0.96208700  0.34048900  0.13666200  1
  H  1046  1  0.86801000  0.39187600  0.09919700  1
  H  1047  1  0.81604900  0.39759900  0.08828800  1
  H  1048  1  0.87122200  0.39975200  0.07788100  1
  H  1050  1  0.80247800  0.39445300  0.05748400  1
  H  1052  1  0.96938500  0.28888400  0.12306200  1
  H  1059  1  0.65539300  0.34676600  0.96044500  1
  H  1068  1  0.58067000  0.30126800  0.93059400  1
  H  1069  1  0.61496300  0.31924600  0.95234100  1
  H  1070  1  0.56076600  0.29624600  0.89955600  1
  H  1072  1  0.69993700  0.39704600  0.92891700  1
  H  1073  1  0.65597000  0.39564700  0.91299800  1
  H  1074  1  0.71200400  0.38656100  0.90923800  1
  H  1076  1  0.61798600  0.34918400  0.85777300  1
  H  1077  1  0.56605600  0.33826600  0.85202900  1
  H  1078  1  0.62126100  0.32788700  0.84985000  1
  H  1080  1  0.55254800  0.30745600  0.85510700  1
  H  1082  1  0.71928100  0.37286000  0.96081900  1
  H  1089  1  0.15536400  0.15297000  0.03929800  1
  H  1098  1  0.08059300  0.19845600  0.06914900  1
  H  1099  1  0.11491100  0.18048500  0.04740100  1
  H  1100  1  0.06070100  0.20348000  0.10018600  1
  H  1102  1  0.19997900  0.10269800  0.07082800  1
  H  1103  1  0.15601800  0.10409400  0.08674800  1
  H  1104  1  0.21204400  0.11318800  0.09050500  1
  H  1106  1  0.11804800  0.15056300  0.14197500  1
  H  1107  1  0.06610100  0.16146900  0.14772400  1
  H  1108  1  0.12128400  0.17186400  0.14989200  1
  H  1110  1  0.05250500  0.19227600  0.14463500  1
  H  1112  1  0.21927900  0.12688200  0.03892200  1
  H  1119  1  0.59584300  0.78962300  0.09680200  1
  H  1128  1  0.67192000  0.81975300  0.05180200  1
  H  1129  1  0.63705000  0.79790000  0.06949600  1
  H  1130  1  0.69179900  0.85082000  0.04702100  1
  H  1132  1  0.55045600  0.82076700  0.14721600  1
  H  1133  1  0.59472000  0.83659800  0.14613200  1
  H  1134  1  0.53900100  0.84057300  0.13687500  1
  H  1136  1  0.63424000  0.89223500  0.10019000  1
  H  1137  1  0.68606500  0.89811200  0.08927100  1
  H  1138  1  0.63080100  0.90025100  0.07893100  1
  H  1140  1  0.69934900  0.89521500  0.05831100  1
  H  1142  1  0.53127300  0.78912900  0.12270900  1
  H  1149  1  0.09583900  0.71011700  0.90293100  1
  H  1158  1  0.17192800  0.67998800  0.94792900  1
  H  1159  1  0.13704200  0.70184000  0.93023900  1
  H  1160  1  0.19177100  0.64891700  0.95271600  1
  H  1162  1  0.05044000  0.67897100  0.85251900  1
  H  1163  1  0.09470400  0.66314100  0.85360300  1
  H  1164  1  0.03898700  0.65916700  0.86286100  1
  H  1166  1  0.13425200  0.60750500  0.89953900  1
  H  1167  1  0.18607300  0.60163200  0.91046300  1
  H  1168  1  0.13080400  0.59948500  0.92079700  1
  H  1170  1  0.19932700  0.60452500  0.94142300  1
  H  1172  1  0.03126400  0.71061100  0.87702500  1
  H  1179  1  0.34662600  0.65318900  0.03828100  1
  H  1188  1  0.42164100  0.69848200  0.06840300  1
  H  1189  1  0.38761000  0.68059100  0.04652800  1
  H  1190  1  0.44075000  0.70346700  0.09952600  1
  H  1192  1  0.30002300  0.60309400  0.06969300  1
  H  1193  1  0.34377200  0.60429200  0.08570400  1
  H  1194  1  0.28798400  0.61362600  0.08935200  1
  H  1196  1  0.38225400  0.65051100  0.14104400  1
  H  1197  1  0.43413800  0.66137100  0.14695300  1
  H  1198  1  0.37896500  0.67179600  0.14900000  1
  H  1200  1  0.44812200  0.69216600  0.14394500  1
  H  1202  1  0.28123100  0.62765700  0.03789500  1
  H  1209  1  0.84664000  0.84654700  0.96145100  1
  H  1218  1  0.92169600  0.80126300  0.93132700  1
  H  1219  1  0.88764400  0.81915100  0.95320400  1
  H  1220  1  0.94079800  0.79628100  0.90020600  1
  H  1222  1  0.79999000  0.89663700  0.93004000  1
  H  1223  1  0.84374000  0.89544300  0.91402800  1
  H  1224  1  0.78795800  0.88610400  0.91038000  1
  H  1226  1  0.88221100  0.84922000  0.85868400  1
  H  1227  1  0.93410900  0.83837000  0.85277300  1
  H  1228  1  0.87895400  0.82793200  0.85073500  1
  H  1230  1  0.94816300  0.80757600  0.85578800  1
  H  1232  1  0.78122700  0.87207500  0.96183900  1
  H  1239  1  0.90315000  0.71141300  0.40311800  1
  H  1248  1  0.82830100  0.68131600  0.44846700  1
  H  1249  1  0.86224800  0.70318100  0.43054200  1
  H  1250  1  0.80920200  0.65019700  0.45348200  1
  H  1252  1  0.94959400  0.67997000  0.35302200  1
  H  1253  1  0.90586100  0.66395500  0.35425200  1
  H  1254  1  0.96167800  0.66032200  0.36356600  1
  H  1256  1  0.86755500  0.60864100  0.40053700  1
  H  1257  1  0.81567100  0.60274800  0.41140400  1
  H  1258  1  0.87084700  0.60069900  0.42182600  1
  H  1260  1  0.80160300  0.60578400  0.44218500  1
  H  1262  1  0.96852800  0.71177000  0.37756700  1
  H  1269  1  0.40315400  0.78831900  0.59661700  1
  H  1278  1  0.32827000  0.81842000  0.55127800  1
  H  1279  1  0.36224200  0.79655400  0.56919600  1
  H  1280  1  0.30919100  0.84954100  0.54626400  1
  H  1282  1  0.44963300  0.81975800  0.64671100  1
  H  1283  1  0.40590100  0.83577400  0.64548600  1
  H  1284  1  0.46171400  0.83940800  0.63616900  1
  H  1286  1  0.36755600  0.89109200  0.59920900  1
  H  1287  1  0.31566200  0.89698300  0.58834800  1
  H  1288  1  0.37083100  0.89903800  0.57792100  1
  H  1290  1  0.30158800  0.89395100  0.55756500  1
  H  1292  1  0.46854700  0.78796000  0.62216600  1
  H  1299  1  0.15399500  0.84686600  0.46010700  1
  H  1308  1  0.07816000  0.80178800  0.43000600  1
  H  1309  1  0.11292300  0.81952500  0.45184800  1
  H  1310  1  0.05829600  0.79697100  0.39893800  1
  H  1312  1  0.19913400  0.89728700  0.42892700  1
  H  1313  1  0.15488300  0.89616100  0.41309500  1
  H  1314  1  0.21064600  0.88693700  0.40913200  1
  H  1316  1  0.11547100  0.85017200  0.35749500  1
  H  1317  1  0.06367800  0.83921900  0.35164400  1
  H  1318  1  0.11898500  0.82891700  0.34947500  1
  H  1320  1  0.05049000  0.80827200  0.35454800  1
  H  1322  1  0.21852900  0.87280100  0.46056400  1
  H  1329  1  0.65396600  0.65286800  0.53964000  1
  H  1338  1  0.57808100  0.69793400  0.56974600  1
  H  1339  1  0.61287100  0.68020400  0.54790300  1
  H  1340  1  0.55823000  0.70274900  0.60081300  1
  H  1342  1  0.69918500  0.60245700  0.57081900  1
  H  1343  1  0.65494200  0.60357700  0.58665500  1
  H  1344  1  0.71069500  0.61280900  0.59061400  1
  H  1346  1  0.61555100  0.64957100  0.64226100  1
  H  1347  1  0.56373700  0.66050700  0.64811700  1
  H  1348  1  0.61901800  0.67083100  0.65027200  1
  H  1350  1  0.55044200  0.69145300  0.64520300  1
  H  1352  1  0.71853200  0.62694200  0.53918100  1
  H  1359  1  0.09818200  0.28872600  0.59646900  1
  H  1368  1  0.17420400  0.31918500  0.55163400  1
  H  1369  1  0.13977700  0.29718100  0.56926000  1
  H  1370  1  0.19319700  0.35034900  0.54689700  1
  H  1372  1  0.05086900  0.31971400  0.64673300  1
  H  1373  1  0.09484500  0.33566100  0.64583100  1
  H  1374  1  0.03932400  0.33949700  0.63635900  1
  H  1376  1  0.13458500  0.39144400  0.60015400  1
  H  1377  1  0.18634900  0.39748400  0.58928800  1
  H  1378  1  0.13109700  0.39951900  0.57891900  1
  H  1380  1  0.20018300  0.39468500  0.55835500  1
  H  1382  1  0.03216300  0.28820200  0.62182200  1
  H  1389  1  0.59818400  0.21102200  0.40326400  1
  H  1398  1  0.67421900  0.18056200  0.44809700  1
  H  1399  1  0.63977900  0.20256700  0.43047500  1
  H  1400  1  0.69317800  0.14939500  0.45284100  1
  H  1402  1  0.55086900  0.18003300  0.35300100  1
  H  1403  1  0.59484300  0.16408700  0.35390400  1
  H  1404  1  0.53932000  0.16025100  0.36337400  1
  H  1406  1  0.63460800  0.10830400  0.39957400  1
  H  1407  1  0.68636600  0.10226600  0.41044600  1
  H  1408  1  0.63110600  0.10022500  0.42080800  1
  H  1410  1  0.70016500  0.10506200  0.44137900  1
  H  1412  1  0.53216200  0.21154600  0.37791200  1
  H  1419  1  0.84806400  0.15304000  0.53861700  1
  H  1428  1  0.92411000  0.19794000  0.56897000  1
  H  1429  1  0.88965900  0.18026900  0.54700700  1
  H  1430  1  0.94313900  0.20274400  0.60012100  1
  H  1432  1  0.80082600  0.10283400  0.56971600  1
  H  1433  1  0.84482100  0.10377500  0.58565300  1
  H  1434  1  0.78929500  0.11324700  0.58947900  1
  H  1436  1  0.88463900  0.14955900  0.64133300  1
  H  1437  1  0.93638300  0.16045400  0.64734400  1
  H  1438  1  0.88110900  0.17080900  0.64936800  1
  H  1440  1  0.95006600  0.19138400  0.64449100  1
  H  1442  1  0.78205300  0.12767800  0.53815900  1
  H  1449  1  0.34807000  0.34669300  0.46111100  1
  H  1458  1  0.42416000  0.30180500  0.43075300  1
  H  1459  1  0.38968100  0.31946900  0.45271700  1
  H  1460  1  0.44318200  0.29700600  0.39960400  1
  H  1462  1  0.30078400  0.39689600  0.43001600  1
  H  1463  1  0.34477900  0.39596100  0.41407800  1
  H  1464  1  0.28926100  0.38648400  0.41025200  1
  H  1466  1  0.38458400  0.35017500  0.35839100  1
  H  1467  1  0.43634600  0.33929300  0.35237500  1
  H  1468  1  0.38109200  0.32892300  0.35036100  1
  H  1470  1  0.45011300  0.30836500  0.35523600  1
  H  1472  1  0.28204100  0.37205200  0.46157300  1
  H  1479  1  0.23760600  0.10985900  0.23209600  1
  H  1480  1  0.11010600  0.08651300  0.24453900  1
  H  1487  1  0.39393900  0.08603000  0.19093600  1
  H  1488  1  0.29823400  0.06269400  0.22453200  1
  H  1491  1  0.22019500  0.04805200  0.21828900  1
  H  1492  1  0.26288100  0.12187000  0.20323100  1
  H  1494  1  0.41820500  0.06546600  0.21639700  1
  H  1495  1  0.39709800  0.05389300  0.19837300  1
  H  1497  1  0.37866400  0.11119400  0.17603100  1
  H  1498  1  0.34627500  0.12511100  0.18933600  1
  H  1500  1  0.15458900  0.12659400  0.23925000  1
  H  1501  1  0.12190000  0.11452600  0.25417000  1
  H  1503  1  0.08300300  0.06378500  0.22543600  1
  H  1504  1  0.11550900  0.05155700  0.24042300  1
  H  1511  1  0.73760700  0.38987800  0.20525200  1
  H  1512  1  0.61010700  0.41322400  0.19280700  1
  H  1519  1  0.89393500  0.41370500  0.24641400  1
  H  1520  1  0.79823700  0.43704100  0.21281500  1
  H  1523  1  0.72020100  0.45168400  0.21905800  1
  H  1524  1  0.76287700  0.37786700  0.23411800  1
  H  1526  1  0.91821100  0.43426700  0.22095300  1
  H  1527  1  0.89709700  0.44584300  0.23897500  1
  H  1529  1  0.87865300  0.38854300  0.26132200  1
  H  1530  1  0.84627000  0.37462600  0.24801500  1
  H  1532  1  0.65459500  0.37314200  0.19809600  1
  H  1533  1  0.62189700  0.38521100  0.18317900  1
  H  1535  1  0.58300700  0.43595300  0.21191000  1
  H  1536  1  0.61551200  0.44818000  0.19692200  1
  H  1543  1  0.48775700  0.23643400  0.07839790  1
  H  1544  1  0.36014300  0.22403400  0.05511690  1
  H  1551  1  0.64401600  0.27761600  0.05456290  1
  H  1552  1  0.54830400  0.24403100  0.03121090  1
  H  1555  1  0.47017700  0.25025700  0.01660490  1
  H  1556  1  0.51302400  0.26528300  0.09041590  1
  H  1558  1  0.66831000  0.25218700  0.03398390  1
  H  1559  1  0.64714700  0.27019700  0.02240390  1
  H  1561  1  0.62875500  0.29249800  0.07974490  1
  H  1562  1  0.59645600  0.27915300  0.09365090  1
  H  1564  1  0.40472900  0.22933900  0.09516690  1
  H  1565  1  0.37199600  0.21441200  0.08312590  1
  H  1567  1  0.33300700  0.24315600  0.03240490  1
  H  1568  1  0.36538700  0.22813500  0.02017190  1
  H  1575  1  0.98776400  0.26330100  0.35894400  1
  H  1576  1  0.86015200  0.27570500  0.38222600  1
  H  1583  1  0.14400800  0.22211100  0.38277800  1
  H  1584  1  0.04831500  0.25570100  0.40613100  1
  H  1587  1  0.97018300  0.24947800  0.42073800  1
  H  1588  1  0.01302300  0.23445000  0.34692600  1
  H  1590  1  0.16831400  0.24753800  0.40335700  1
  H  1591  1  0.14714900  0.22953000  0.41493700  1
  H  1593  1  0.12873600  0.20722400  0.35759900  1
  H  1594  1  0.09644800  0.22057200  0.34369200  1
  H  1596  1  0.90473100  0.27039700  0.34217600  1
  H  1597  1  0.87200900  0.28532800  0.35421700  1
  H  1599  1  0.83301300  0.25658100  0.40493800  1
  H  1600  1  0.86539300  0.27160300  0.41717000  1
  H  1607  1  0.76179900  0.88954000  0.20624200  1
  H  1608  1  0.88609100  0.91417700  0.19189900  1
  H  1615  1  0.60511800  0.91427300  0.24785800  1
  H  1616  1  0.69593800  0.93670000  0.21193500  1
  H  1619  1  0.77304000  0.95288600  0.21571500  1
  H  1620  1  0.73627000  0.87860300  0.23516300  1
  H  1622  1  0.57620200  0.93362500  0.22336500  1
  H  1623  1  0.60250500  0.94693000  0.23903800  1
  H  1625  1  0.62218400  0.88946700  0.26298200  1
  H  1626  1  0.65308000  0.87544600  0.24932400  1
  H  1628  1  0.84496800  0.87344200  0.19942700  1
  H  1629  1  0.87774300  0.88527100  0.18433700  1
  H  1631  1  0.90331100  0.94245700  0.19870000  1
  H  1632  1  0.85278800  0.95534400  0.19916800  1
  H  1639  1  0.26180400  0.61019700  0.23109200  1
  H  1640  1  0.38609200  0.58555600  0.24543500  1
  H  1647  1  0.10511100  0.58546900  0.18948200  1
  H  1648  1  0.19593900  0.56303800  0.22539900  1
  H  1651  1  0.27303600  0.54685200  0.22161800  1
  H  1652  1  0.23627300  0.62113500  0.20217200  1
  H  1654  1  0.07620000  0.56611500  0.21397500  1
  H  1655  1  0.10249400  0.55281200  0.19829800  1
  H  1657  1  0.12217300  0.61027700  0.17436100  1
  H  1658  1  0.15308300  0.62429600  0.18801700  1
  H  1660  1  0.34497100  0.62629300  0.23790800  1
  H  1661  1  0.37774700  0.61446400  0.25299500  1
  H  1663  1  0.40330500  0.55727800  0.23863600  1
  H  1664  1  0.35277800  0.54439100  0.23816500  1
  H  1671  1  0.51244000  0.76331100  0.35849000  1
  H  1672  1  0.63980000  0.77566700  0.38198300  1
  H  1679  1  0.35622800  0.72185100  0.38212900  1
  H  1680  1  0.45144600  0.75553900  0.40560000  1
  H  1683  1  0.52944000  0.74935300  0.42029300  1
  H  1684  1  0.48724700  0.73447500  0.34637900  1
  H  1686  1  0.33154900  0.74720800  0.40275200  1
  H  1687  1  0.35288300  0.72921600  0.41431500  1
  H  1689  1  0.37178600  0.70703300  0.35692400  1
  H  1690  1  0.40396200  0.72046400  0.34306000  1
  H  1692  1  0.59538800  0.77044600  0.34182100  1
  H  1693  1  0.62844700  0.78520700  0.35393900  1
  H  1695  1  0.66666667  0.75651400  0.40469700  1
  H  1696  1  0.63420500  0.77153300  0.41689200  1
  H  1703  1  0.01243500  0.73642900  0.07884690  1
  H  1704  1  0.13979400  0.72407100  0.05535390  1
  H  1711  1  0.85623400  0.77789800  0.05520690  1
  H  1712  1  0.95143800  0.74420200  0.03173790  1
  H  1715  1  0.02943500  0.75038700  0.01704190  1
  H  1716  1  0.98724600  0.76526800  0.09095690  1
  H  1718  1  0.83154400  0.75253900  0.03458490  1
  H  1719  1  0.85288200  0.77053200  0.02302290  1
  H  1721  1  0.87180200  0.79272000  0.08040890  1
  H  1722  1  0.90396200  0.77928700  0.09427590  1
  H  1724  1  0.09538300  0.72929300  0.09551590  1
  H  1725  1  0.12843600  0.71453200  0.08339790  1
  H  1727  1  0.16668500  0.74322600  0.03263990  1
  H  1728  1  0.13420200  0.72820600  0.02044590  1
  H  1735  1  0.73741100  0.60996000  0.73214400  1
  H  1736  1  0.61001600  0.58648700  0.74448300  1
  H  1743  1  0.89352500  0.58630700  0.69060400  1
  H  1744  1  0.79834200  0.56282700  0.72429800  1
  H  1747  1  0.72030300  0.54816700  0.71813700  1
  H  1748  1  0.76264600  0.62209100  0.70332500  1
  H  1750  1  0.91824600  0.56564200  0.71590900  1
  H  1751  1  0.89679300  0.55409400  0.69792600  1
  H  1753  1  0.87803000  0.61155100  0.67584300  1
  H  1754  1  0.84589900  0.62540600  0.68929400  1
  H  1756  1  0.65446900  0.62664300  0.73927200  1
  H  1757  1  0.62136600  0.61452800  0.75401900  1
  H  1759  1  0.58310100  0.56379200  0.72529400  1
  H  1760  1  0.61549100  0.55160200  0.74034500  1
  H  1767  1  0.23740500  0.88977600  0.70520700  1
  H  1768  1  0.11001500  0.91325200  0.69286700  1
  H  1775  1  0.39351900  0.91342900  0.74674700  1
  H  1776  1  0.29834200  0.93690700  0.71305000  1
  H  1779  1  0.22030700  0.95156900  0.71921300  1
  H  1780  1  0.26263900  0.87764500  0.73402700  1
  H  1782  1  0.41824700  0.93409100  0.72144100  1
  H  1783  1  0.39679400  0.94564300  0.73942000  1
  H  1785  1  0.37802000  0.88818800  0.76151200  1
  H  1786  1  0.34589800  0.87433100  0.74805900  1
  H  1788  1  0.15447300  0.87309400  0.69807900  1
  H  1789  1  0.12135900  0.88520800  0.68333300  1
  H  1791  1  0.08310200  0.93594700  0.71205300  1
  H  1792  1  0.11549700  0.94813600  0.69700200  1
  H  1799  1  0.98799400  0.73739800  0.57890700  1
  H  1800  1  0.86369300  0.72306200  0.55427400  1
  H  1807  1  0.14460700  0.77907900  0.55418400  1
  H  1808  1  0.05378800  0.74318400  0.53171700  1
  H  1811  1  0.97665600  0.74693900  0.51557100  1
  H  1812  1  0.01357300  0.76628700  0.58988000  1
  H  1814  1  0.17352900  0.75466100  0.53476800  1
  H  1815  1  0.14712000  0.77033000  0.52148800  1
  H  1817  1  0.12766000  0.79410600  0.57905700  1
  H  1818  1  0.09672000  0.78043700  0.59305100  1
  H  1820  1  0.90482900  0.73058000  0.59501100  1
  H  1821  1  0.87202300  0.71550500  0.58317900  1
  H  1823  1  0.84646900  0.72985600  0.52599700  1
  H  1824  1  0.89698500  0.73035700  0.51311000  1
  H  1831  1  0.48800900  0.76233100  0.85843100  1
  H  1832  1  0.36370800  0.77667200  0.88306000  1
  H  1839  1  0.64460000  0.72064300  0.88316800  1
  H  1840  1  0.55379400  0.75655100  0.90562100  1
  H  1843  1  0.47666000  0.75279600  0.92176800  1
  H  1844  1  0.51358800  0.73343600  0.84746400  1
  H  1846  1  0.67353300  0.74506300  0.90257800  1
  H  1847  1  0.64710100  0.72940600  0.91586600  1
  H  1849  1  0.62764200  0.70560300  0.85830300  1
  H  1850  1  0.59673900  0.71927600  0.84430100  1
  H  1852  1  0.40484800  0.76915100  0.84232400  1
  H  1853  1  0.37204100  0.78422600  0.85415500  1
  H  1855  1  0.34648000  0.76988500  0.91133700  1
  H  1856  1  0.39699700  0.76937900  0.92422700  1
  H  1863  1  0.26208200  0.38944900  0.70618900  1
  H  1864  1  0.38614400  0.41427800  0.69191400  1
  H  1871  1  0.10553700  0.41395600  0.74815500  1
  H  1872  1  0.19585600  0.43657200  0.71218500  1
  H  1875  1  0.27283700  0.45278400  0.71589200  1
  H  1876  1  0.23655600  0.37836500  0.73504600  1
  H  1878  1  0.07624100  0.43343200  0.72383200  1
  H  1879  1  0.10278800  0.44670000  0.73947800  1
  H  1881  1  0.12280100  0.38905200  0.76311100  1
  H  1882  1  0.15351200  0.37510700  0.74932100  1
  H  1884  1  0.34523700  0.37344600  0.69936600  1
  H  1885  1  0.37830700  0.38535200  0.68443500  1
  H  1887  1  0.40300000  0.44257600  0.69868700  1
  H  1888  1  0.35236200  0.45539200  0.69927500  1
  H  1895  1  0.76209300  0.11028600  0.73114400  1
  H  1896  1  0.88614300  0.08545100  0.74541600  1
  H  1903  1  0.60552700  0.08579500  0.68918300  1
  H  1904  1  0.69585100  0.06316600  0.72514400  1
  H  1907  1  0.77282400  0.04695200  0.72143700  1
  H  1908  1  0.73656800  0.12137500  0.70228900  1
  H  1910  1  0.57623700  0.06631500  0.71350600  1
  H  1911  1  0.60276000  0.05305200  0.69785000  1
  H  1913  1  0.62279300  0.11070000  0.67423300  1
  H  1914  1  0.65352500  0.12464100  0.68802000  1
  H  1916  1  0.84525200  0.12628600  0.73796700  1
  H  1917  1  0.87831700  0.11437700  0.75289700  1
  H  1919  1  0.90299200  0.05715300  0.73864100  1
  H  1920  1  0.85234700  0.04434000  0.73805300  1
  H  1927  1  0.01221800  0.26235400  0.85797500  1
  H  1928  1  0.13619600  0.27663500  0.88285800  1
  H  1935  1  0.85554100  0.22043500  0.88245900  1
  H  1936  1  0.94589900  0.25639300  0.90507100  1
  H  1939  1  0.02280200  0.25265500  0.92131800  1
  H  1940  1  0.98666900  0.23348500  0.84689400  1
  H  1942  1  0.82630000  0.24480000  0.90192700  1
  H  1943  1  0.85275300  0.22911300  0.91517600  1
  H  1945  1  0.87279300  0.20547100  0.85756700  1
  H  1946  1  0.90366400  0.21920900  0.84361900  1
  H  1948  1  0.09537300  0.26921500  0.84200000  1
  H  1949  1  0.12841800  0.28413400  0.85393200  1
  H  1951  1  0.15300700  0.26982700  0.91115400  1
  H  1952  1  0.10232300  0.26927800  0.92394900  1
  H  1959  1  0.51221600  0.23739400  0.57936200  1
  H  1960  1  0.63620000  0.22311400  0.55448000  1
  H  1967  1  0.35554500  0.27931500  0.55486800  1
  H  1968  1  0.44590000  0.24334800  0.53226700  1
  H  1971  1  0.52280300  0.24708900  0.51601900  1
  H  1972  1  0.48666200  0.26626500  0.59044000  1
  H  1974  1  0.32629700  0.25494900  0.53540600  1
  H  1975  1  0.35276700  0.27062500  0.52214900  1
  H  1977  1  0.37280700  0.29429100  0.57975400  1
  H  1978  1  0.40364800  0.28055000  0.59370700  1
  H  1980  1  0.59537100  0.23053300  0.59533800  1
  H  1981  1  0.62841900  0.21561400  0.58340600  1
  H  1983  1  0.65301700  0.22992600  0.52618500  1
  H  1984  1  0.60233300  0.23046800  0.51338900  1
  H  1991  1  0.03153800  0.04604000  0.20689100  1
  H  2000  1  0.89057900  0.01409600  0.20759200  1
  H  2001  1  0.94812800  0.03638800  0.20450300  1
  H  2002  1  0.87077000  0.98360300  0.21517300  1
  H  2004  1  0.17277800  0.01853400  0.22504800  1
  H  2005  1  0.15804500  0.99754000  0.21822200  1
  H  2006  1  0.14652800  0.00407100  0.23969400  1
  H  2008  1  0.02494300  0.94597200  0.23406500  1
  H  2009  1  0.97973800  0.93555800  0.22253600  1
  H  2010  1  0.97150900  0.94131400  0.24450400  1
  H  2012  1  0.89459200  0.94145400  0.23110200  1
  H  2014  1  0.12175600  0.04891900  0.20241700  1
  H  2021  1  0.53154200  0.45369900  0.23045200  1
  H  2030  1  0.39058400  0.48564000  0.22974500  1
  H  2031  1  0.44813600  0.46335100  0.23284000  1
  H  2032  1  0.37077500  0.51613500  0.22216700  1
  H  2034  1  0.67278500  0.48120500  0.21229900  1
  H  2035  1  0.65804100  0.50219800  0.21912500  1
  H  2036  1  0.64654500  0.49566800  0.19765100  1
  H  2038  1  0.52494100  0.55376200  0.20326100  1
  H  2039  1  0.47974200  0.56417900  0.21478900  1
  H  2040  1  0.47149900  0.55841700  0.19282400  1
  H  2042  1  0.39459700  0.55828100  0.20623400  1
  H  2044  1  0.62176100  0.45082100  0.23492900  1
  H  2051  1  0.28149000  0.26167000  0.01463490  1
  H  2060  1  0.14048500  0.26097900  0.98271500  1
  H  2061  1  0.19806900  0.26407200  0.00499392  1
  H  2062  1  0.12062200  0.25337000  0.95222900  1
  H  2064  1  0.42265600  0.24344900  0.98711900  1
  H  2065  1  0.40790200  0.25025800  0.96612100  1
  H  2066  1  0.39635000  0.22879600  0.97267700  1
  H  2068  1  0.27471300  0.23438300  0.91460300  1
  H  2069  1  0.22953500  0.24591600  0.90417800  1
  H  2070  1  0.22125100  0.22395700  0.90996200  1
  H  2072  1  0.14440400  0.23739500  0.91008400  1
  H  2074  1  0.37174400  0.26613400  0.01748490  1
  H  2081  1  0.78149300  0.23807000  0.42270500  1
  H  2090  1  0.64048200  0.23877100  0.45462200  1
  H  2091  1  0.69806900  0.23567000  0.43234600  1
  H  2092  1  0.62061300  0.24638100  0.48510600  1
  H  2094  1  0.92265800  0.25628800  0.45022400  1
  H  2095  1  0.90790500  0.24947800  0.47122300  1
  H  2096  1  0.89635200  0.27094100  0.46466600  1
  H  2098  1  0.77470900  0.26535000  0.52274000  1
  H  2099  1  0.72951400  0.25382500  0.53316100  1
  H  2100  1  0.72125800  0.27578400  0.52738000  1
  H  2102  1  0.64439000  0.26235800  0.52725100  1
  H  2104  1  0.87174600  0.23360300  0.41985800  1
  H  2111  1  0.95900200  0.45549200  0.20025300  1
  H  2120  1  0.09894800  0.48793100  0.19648100  1
  H  2121  1  0.03967200  0.46625800  0.19334800  1
  H  2122  1  0.12403000  0.51657200  0.20826300  1
  H  2124  1  0.83073900  0.47858300  0.23226600  1
  H  2125  1  0.84359700  0.50056800  0.22898100  1
  H  2126  1  0.86487900  0.48981900  0.24755100  1
  H  2128  1  0.98984900  0.54627100  0.24910900  1
  H  2129  1  0.02405600  0.56030700  0.23648500  1
  H  2130  1  0.04940800  0.54938700  0.25428600  1
  H  2132  1  0.12062400  0.55103600  0.23593300  1
  H  2134  1  0.86943400  0.45160800  0.20265500  1
  H  2141  1  0.45899200  0.04423800  0.23709100  1
  H  2150  1  0.59895000  0.01180500  0.24085400  1
  H  2151  1  0.53966600  0.03347400  0.24399400  1
  H  2152  1  0.62403100  0.98316300  0.22907300  1
  H  2154  1  0.33072900  0.02114800  0.20508100  1
  H  2155  1  0.34359900  0.99916500  0.20836500  1
  H  2156  1  0.36485500  0.00991300  0.18979200  1
  H  2158  1  0.48984600  0.95346200  0.18822900  1
  H  2159  1  0.52404800  0.93943100  0.20085800  1
  H  2160  1  0.54939900  0.95034100  0.18305200  1
  H  2162  1  0.62062000  0.94869800  0.20140100  1
  H  2164  1  0.36942400  0.04812100  0.23469100  1
  H  2171  1  0.70914500  0.23146900  0.01278990  1
  H  2180  1  0.84889700  0.22745300  0.98026400  1
  H  2181  1  0.78973900  0.22447300  0.00200092  1
  H  2182  1  0.87391600  0.23910000  0.95155500  1
  H  2184  1  0.58093900  0.26348300  0.98965900  1
  H  2185  1  0.59365300  0.26008100  0.96768100  1
  H  2186  1  0.61509600  0.27868700  0.97832300  1
  H  2188  1  0.73977200  0.27989800  0.92177500  1
  H  2189  1  0.77383500  0.26720000  0.90776000  1
  H  2190  1  0.79933900  0.28502000  0.91860100  1
  H  2192  1  0.87060600  0.26675400  0.91710700  1
  H  2194  1  0.61952500  0.23387400  0.01665290  1
  H  2201  1  0.20915500  0.26825500  0.42455000  1
  H  2210  1  0.34890800  0.27227100  0.45707600  1
  H  2211  1  0.28974500  0.27525400  0.43534100  1
  H  2212  1  0.37392000  0.26062500  0.48578600  1
  H  2214  1  0.08093900  0.23624800  0.44768300  1
  H  2215  1  0.09364300  0.23965800  0.46966100  1
  H  2216  1  0.11509200  0.22104800  0.45902800  1
  H  2218  1  0.23975100  0.21984700  0.51557900  1
  H  2219  1  0.27384300  0.23254200  0.52958800  1
  H  2220  1  0.29931100  0.21471300  0.51874900  1
  H  2222  1  0.37060000  0.23297900  0.52024600  1
  H  2224  1  0.11953600  0.26585300  0.42069000  1
  H  2231  1  0.71801100  0.73796800  0.42245400  1
  H  2240  1  0.85898000  0.73867700  0.45438400  1
  H  2241  1  0.80141100  0.73557400  0.43210200  1
  H  2242  1  0.87882400  0.74629400  0.48486300  1
  H  2244  1  0.57682800  0.75622700  0.44992700  1
  H  2245  1  0.59152900  0.74942900  0.47093300  1
  H  2246  1  0.60312400  0.77088500  0.46436800  1
  H  2248  1  0.72472100  0.76527300  0.52248600  1
  H  2249  1  0.76990200  0.75374200  0.53291200  1
  H  2250  1  0.77818300  0.77570100  0.52712900  1
  H  2252  1  0.85504400  0.76225700  0.52701200  1
  H  2254  1  0.62777500  0.73353700  0.41957100  1
  H  2261  1  0.21800500  0.76177000  0.01488190  1
  H  2270  1  0.35897400  0.76106200  0.98295200  1
  H  2271  1  0.30140300  0.76416700  0.00523292  1
  H  2272  1  0.37881800  0.75345100  0.95247100  1
  H  2274  1  0.07682100  0.74351100  0.98740700  1
  H  2275  1  0.09153100  0.75031200  0.96640300  1
  H  2276  1  0.10311300  0.72885400  0.97296700  1
  H  2278  1  0.22472600  0.73445400  0.91485200  1
  H  2279  1  0.26989600  0.74598600  0.90442400  1
  H  2280  1  0.27819400  0.72403000  0.91021200  1
  H  2282  1  0.35504200  0.73748100  0.91032500  1
  H  2284  1  0.12776800  0.76620100  0.01776290  1
  H  2291  1  0.29051300  0.76789900  0.42394000  1
  H  2300  1  0.15073700  0.77190300  0.45645200  1
  H  2301  1  0.20990000  0.77488000  0.43471600  1
  H  2302  1  0.12573700  0.76027700  0.48516900  1
  H  2304  1  0.41880400  0.73596700  0.44711700  1
  H  2305  1  0.40603700  0.73938800  0.46908900  1
  H  2306  1  0.38470600  0.72075300  0.45846700  1
  H  2308  1  0.25988700  0.71950200  0.51497800  1
  H  2309  1  0.22585100  0.73222000  0.52898300  1
  H  2310  1  0.20032100  0.71439000  0.51816700  1
  H  2312  1  0.12908200  0.73269400  0.51967900  1
  H  2314  1  0.38014100  0.76556600  0.42012400  1
  H  2321  1  0.79049800  0.73185000  0.01339790  1
  H  2330  1  0.65072900  0.72784900  0.98088500  1
  H  2331  1  0.70989100  0.72486800  0.00261892  1
  H  2332  1  0.62573200  0.73947100  0.95216600  1
  H  2334  1  0.91880300  0.76377600  0.99021800  1
  H  2335  1  0.90605000  0.76034600  0.96824800  1
  H  2336  1  0.88471200  0.77898500  0.97886100  1
  H  2338  1  0.75991400  0.78022500  0.92234600  1
  H  2339  1  0.72584400  0.76751200  0.90834700  1
  H  2340  1  0.70035300  0.78535000  0.91916100  1
  H  2342  1  0.62909400  0.76704700  0.91764600  1
  H  2344  1  0.88012900  0.73417900  0.01721190  1
  H  2351  1  0.53175600  0.54601000  0.70678000  1
  H  2360  1  0.39074500  0.51410500  0.70748300  1
  H  2361  1  0.44834900  0.53637200  0.70437300  1
  H  2362  1  0.37084100  0.48363800  0.71512600  1
  H  2364  1  0.67287500  0.51852700  0.72509200  1
  H  2365  1  0.65815700  0.49752000  0.71830200  1
  H  2366  1  0.64653800  0.50409900  0.73975100  1
  H  2368  1  0.52486400  0.44599900  0.73415700  1
  H  2369  1  0.47968300  0.43557300  0.72262700  1
  H  2370  1  0.47138800  0.44137200  0.74458100  1
  H  2372  1  0.39457200  0.44148500  0.73111400  1
  H  2374  1  0.62202000  0.54886600  0.70235700  1
  H  2381  1  0.03175700  0.95372700  0.73056500  1
  H  2390  1  0.89073700  0.98562900  0.72984800  1
  H  2391  1  0.94834500  0.96336400  0.73296800  1
  H  2392  1  0.87083000  0.01609500  0.72220400  1
  H  2394  1  0.17288000  0.98121300  0.71226100  1
  H  2395  1  0.15814900  0.00222000  0.71904900  1
  H  2396  1  0.14654900  0.99563900  0.69759800  1
  H  2398  1  0.02485300  0.05373600  0.70317200  1
  H  2399  1  0.97966400  0.06416200  0.71469900  1
  H  2400  1  0.97137600  0.05835700  0.69274600  1
  H  2402  1  0.89455700  0.05824600  0.70621200  1
  H  2404  1  0.12202000  0.95087300  0.73499100  1
  H  2411  1  0.45930300  0.95524200  0.70073600  1
  H  2420  1  0.59887000  0.98784800  0.69648500  1
  H  2421  1  0.53983400  0.96604500  0.69366500  1
  H  2422  1  0.62378700  0.01663400  0.70796400  1
  H  2424  1  0.33103400  0.97846500  0.73264500  1
  H  2425  1  0.34363200  0.00042800  0.72908600  1
  H  2426  1  0.36511800  0.98993600  0.74777000  1
  H  2428  1  0.48960800  0.04656500  0.74863000  1
  H  2429  1  0.52355200  0.06053100  0.73583700  1
  H  2430  1  0.54917200  0.04981100  0.75370900  1
  H  2432  1  0.62050800  0.05115800  0.73549900  1
  H  2434  1  0.36963400  0.95144700  0.70306000  1
  H  2441  1  0.95930200  0.54448600  0.73660800  1
  H  2450  1  0.09887300  0.51188300  0.74084800  1
  H  2451  1  0.03982900  0.53368200  0.74367700  1
  H  2452  1  0.12379600  0.48310200  0.72936300  1
  H  2454  1  0.83103000  0.52126700  0.70469600  1
  H  2455  1  0.84362100  0.49930400  0.70825600  1
  H  2456  1  0.86511300  0.50979600  0.68957200  1
  H  2458  1  0.98960000  0.45316800  0.68870600  1
  H  2459  1  0.02357700  0.43920400  0.70149100  1
  H  2460  1  0.04916000  0.44992900  0.68361500  1
  H  2462  1  0.12051000  0.44857400  0.70182700  1
  H  2464  1  0.86963000  0.54828000  0.73428400  1
  H  2471  1  0.40547400  0.21053300  0.12157000  1
  H  2480  1  0.33063000  0.18078100  0.16710400  1
  H  2481  1  0.36498500  0.20249000  0.14909400  1
  H  2482  1  0.31066400  0.14976000  0.17217700  1
  H  2484  1  0.45001500  0.17890800  0.07134790  1
  H  2485  1  0.40602700  0.16300000  0.07277090  1
  H  2486  1  0.46204300  0.15924600  0.08187290  1
  H  2488  1  0.36799700  0.10786100  0.11934600  1
  H  2489  1  0.31604600  0.10213700  0.13026100  1
  H  2490  1  0.37122600  0.09998800  0.14066200  1
  H  2492  1  0.30249300  0.10528400  0.16106500  1
  H  2494  1  0.46937600  0.21084900  0.09547690  1
  H  2501  1  0.90545900  0.28920200  0.31577600  1
  H  2510  1  0.83058200  0.31895500  0.27024900  1
  H  2511  1  0.86496300  0.29724700  0.28825300  1
  H  2512  1  0.81064300  0.34997900  0.26517300  1
  H  2514  1  0.95005600  0.32082800  0.36598800  1
  H  2515  1  0.90607500  0.33673700  0.36456900  1
  H  2516  1  0.96208700  0.34048900  0.35546300  1
  H  2518  1  0.86801000  0.39187600  0.31799800  1
  H  2519  1  0.81604900  0.39759900  0.30708900  1
  H  2520  1  0.87122200  0.39975200  0.29668200  1
  H  2522  1  0.80247800  0.39445300  0.27628500  1
  H  2524  1  0.96938500  0.28888400  0.34186300  1
  H  2531  1  0.65539300  0.34676600  0.17924600  1
  H  2540  1  0.58067000  0.30126800  0.14939500  1
  H  2541  1  0.61496300  0.31924600  0.17114200  1
  H  2542  1  0.56076600  0.29624600  0.11835700  1
  H  2544  1  0.69993700  0.39704600  0.14771800  1
  H  2545  1  0.65597000  0.39564700  0.13179900  1
  H  2546  1  0.71200400  0.38656100  0.12803900  1
  H  2548  1  0.61798600  0.34918400  0.07657390  1
  H  2549  1  0.56605600  0.33826600  0.07082990  1
  H  2550  1  0.62126100  0.32788700  0.06865090  1
  H  2552  1  0.55254800  0.30745600  0.07390790  1
  H  2554  1  0.71928100  0.37286000  0.17962000  1
  H  2561  1  0.15536400  0.15297000  0.25809900  1
  H  2570  1  0.08059300  0.19845600  0.28795000  1
  H  2571  1  0.11491100  0.18048500  0.26620200  1
  H  2572  1  0.06070100  0.20348000  0.31898700  1
  H  2574  1  0.19997900  0.10269800  0.28962900  1
  H  2575  1  0.15601800  0.10409400  0.30554900  1
  H  2576  1  0.21204400  0.11318800  0.30930600  1
  H  2578  1  0.11804800  0.15056300  0.36077600  1
  H  2579  1  0.06610100  0.16146900  0.36652500  1
  H  2580  1  0.12128400  0.17186400  0.36869300  1
  H  2582  1  0.05250500  0.19227600  0.36343600  1
  H  2584  1  0.21927900  0.12688200  0.25772300  1
  H  2591  1  0.59584300  0.78962300  0.31560300  1
  H  2600  1  0.67192000  0.81975300  0.27060300  1
  H  2601  1  0.63705000  0.79790000  0.28829700  1
  H  2602  1  0.69179900  0.85082000  0.26582200  1
  H  2604  1  0.55045600  0.82076700  0.36601700  1
  H  2605  1  0.59472000  0.83659800  0.36493300  1
  H  2606  1  0.53900100  0.84057300  0.35567600  1
  H  2608  1  0.63424000  0.89223500  0.31899100  1
  H  2609  1  0.68606500  0.89811200  0.30807200  1
  H  2610  1  0.63080100  0.90025100  0.29773200  1
  H  2612  1  0.69934900  0.89521500  0.27711200  1
  H  2614  1  0.53127300  0.78912900  0.34151000  1
  H  2621  1  0.09583900  0.71011700  0.12173200  1
  H  2630  1  0.17192800  0.67998800  0.16673000  1
  H  2631  1  0.13704200  0.70184000  0.14904000  1
  H  2632  1  0.19177100  0.64891700  0.17151700  1
  H  2634  1  0.05044000  0.67897100  0.07131990  1
  H  2635  1  0.09470400  0.66314100  0.07240390  1
  H  2636  1  0.03898700  0.65916700  0.08166190  1
  H  2638  1  0.13425200  0.60750500  0.11834000  1
  H  2639  1  0.18607300  0.60163200  0.12926400  1
  H  2640  1  0.13080400  0.59948500  0.13959800  1
  H  2642  1  0.19932700  0.60452500  0.16022400  1
  H  2644  1  0.03126400  0.71061100  0.09582590  1
  H  2651  1  0.34662600  0.65318900  0.25708200  1
  H  2660  1  0.42164100  0.69848200  0.28720400  1
  H  2661  1  0.38761000  0.68059100  0.26532900  1
  H  2662  1  0.44075000  0.70346700  0.31832700  1
  H  2664  1  0.30002300  0.60309400  0.28849400  1
  H  2665  1  0.34377200  0.60429200  0.30450500  1
  H  2666  1  0.28798400  0.61362600  0.30815300  1
  H  2668  1  0.38225400  0.65051100  0.35984500  1
  H  2669  1  0.43413800  0.66137100  0.36575400  1
  H  2670  1  0.37896500  0.67179600  0.36780100  1
  H  2672  1  0.44812200  0.69216600  0.36274600  1
  H  2674  1  0.28123100  0.62765700  0.25669600  1
  H  2681  1  0.84664000  0.84654700  0.18025200  1
  H  2690  1  0.92169600  0.80126300  0.15012800  1
  H  2691  1  0.88764400  0.81915100  0.17200500  1
  H  2692  1  0.94079800  0.79628100  0.11900700  1
  H  2694  1  0.79999000  0.89663700  0.14884100  1
  H  2695  1  0.84374000  0.89544300  0.13282900  1
  H  2696  1  0.78795800  0.88610400  0.12918100  1
  H  2698  1  0.88221100  0.84922000  0.07748490  1
  H  2699  1  0.93410900  0.83837000  0.07157390  1
  H  2700  1  0.87895400  0.82793200  0.06953590  1
  H  2702  1  0.94816300  0.80757600  0.07458890  1
  H  2704  1  0.78122700  0.87207500  0.18064000  1
  H  2711  1  0.90315000  0.71141300  0.62191900  1
  H  2720  1  0.82830100  0.68131600  0.66726800  1
  H  2721  1  0.86224800  0.70318100  0.64934300  1
  H  2722  1  0.80920200  0.65019700  0.67228300  1
  H  2724  1  0.94959400  0.67997000  0.57182300  1
  H  2725  1  0.90586100  0.66395500  0.57305300  1
  H  2726  1  0.96167800  0.66032200  0.58236700  1
  H  2728  1  0.86755500  0.60864100  0.61933800  1
  H  2729  1  0.81567100  0.60274800  0.63020500  1
  H  2730  1  0.87084700  0.60069900  0.64062700  1
  H  2732  1  0.80160300  0.60578400  0.66098600  1
  H  2734  1  0.96852800  0.71177000  0.59636800  1
  H  2741  1  0.40315400  0.78831900  0.81541800  1
  H  2750  1  0.32827000  0.81842000  0.77007900  1
  H  2751  1  0.36224200  0.79655400  0.78799700  1
  H  2752  1  0.30919100  0.84954100  0.76506500  1
  H  2754  1  0.44963300  0.81975800  0.86551200  1
  H  2755  1  0.40590100  0.83577400  0.86428700  1
  H  2756  1  0.46171400  0.83940800  0.85497000  1
  H  2758  1  0.36755600  0.89109200  0.81801000  1
  H  2759  1  0.31566200  0.89698300  0.80714900  1
  H  2760  1  0.37083100  0.89903800  0.79672200  1
  H  2762  1  0.30158800  0.89395100  0.77636600  1
  H  2764  1  0.46854700  0.78796000  0.84096700  1
  H  2771  1  0.15399500  0.84686600  0.67890800  1
  H  2780  1  0.07816000  0.80178800  0.64880700  1
  H  2781  1  0.11292300  0.81952500  0.67064900  1
  H  2782  1  0.05829600  0.79697100  0.61773900  1
  H  2784  1  0.19913400  0.89728700  0.64772800  1
  H  2785  1  0.15488300  0.89616100  0.63189600  1
  H  2786  1  0.21064600  0.88693700  0.62793300  1
  H  2788  1  0.11547100  0.85017200  0.57629600  1
  H  2789  1  0.06367800  0.83921900  0.57044500  1
  H  2790  1  0.11898500  0.82891700  0.56827600  1
  H  2792  1  0.05049000  0.80827200  0.57334900  1
  H  2794  1  0.21852900  0.87280100  0.67936500  1
  H  2801  1  0.65396600  0.65286800  0.75844100  1
  H  2810  1  0.57808100  0.69793400  0.78854700  1
  H  2811  1  0.61287100  0.68020400  0.76670400  1
  H  2812  1  0.55823000  0.70274900  0.81961400  1
  H  2814  1  0.69918500  0.60245700  0.78962000  1
  H  2815  1  0.65494200  0.60357700  0.80545600  1
  H  2816  1  0.71069500  0.61280900  0.80941500  1
  H  2818  1  0.61555100  0.64957100  0.86106200  1
  H  2819  1  0.56373700  0.66050700  0.86691800  1
  H  2820  1  0.61901800  0.67083100  0.86907300  1
  H  2822  1  0.55044200  0.69145300  0.86400400  1
  H  2824  1  0.71853200  0.62694200  0.75798200  1
  H  2831  1  0.09818200  0.28872600  0.81527000  1
  H  2840  1  0.17420400  0.31918500  0.77043500  1
  H  2841  1  0.13977700  0.29718100  0.78806100  1
  H  2842  1  0.19319700  0.35034900  0.76569800  1
  H  2844  1  0.05086900  0.31971400  0.86553400  1
  H  2845  1  0.09484500  0.33566100  0.86463200  1
  H  2846  1  0.03932400  0.33949700  0.85516000  1
  H  2848  1  0.13458500  0.39144400  0.81895500  1
  H  2849  1  0.18634900  0.39748400  0.80808900  1
  H  2850  1  0.13109700  0.39951900  0.79772000  1
  H  2852  1  0.20018300  0.39468500  0.77715600  1
  H  2854  1  0.03216300  0.28820200  0.84062300  1
  H  2861  1  0.59818400  0.21102200  0.62206500  1
  H  2870  1  0.67421900  0.18056200  0.66689800  1
  H  2871  1  0.63977900  0.20256700  0.64927600  1
  H  2872  1  0.69317800  0.14939500  0.67164200  1
  H  2874  1  0.55086900  0.18003300  0.57180200  1
  H  2875  1  0.59484300  0.16408700  0.57270500  1
  H  2876  1  0.53932000  0.16025100  0.58217500  1
  H  2878  1  0.63460800  0.10830400  0.61837500  1
  H  2879  1  0.68636600  0.10226600  0.62924700  1
  H  2880  1  0.63110600  0.10022500  0.63960900  1
  H  2882  1  0.70016500  0.10506200  0.66018000  1
  H  2884  1  0.53216200  0.21154600  0.59671300  1
  H  2891  1  0.84806400  0.15304000  0.75741800  1
  H  2900  1  0.92411000  0.19794000  0.78777100  1
  H  2901  1  0.88965900  0.18026900  0.76580800  1
  H  2902  1  0.94313900  0.20274400  0.81892200  1
  H  2904  1  0.80082600  0.10283400  0.78851700  1
  H  2905  1  0.84482100  0.10377500  0.80445400  1
  H  2906  1  0.78929500  0.11324700  0.80828000  1
  H  2908  1  0.88463900  0.14955900  0.86013400  1
  H  2909  1  0.93638300  0.16045400  0.86614500  1
  H  2910  1  0.88110900  0.17080900  0.86816900  1
  H  2912  1  0.95006600  0.19138400  0.86329200  1
  H  2914  1  0.78205300  0.12767800  0.75696000  1
  H  2921  1  0.34807000  0.34669300  0.67991200  1
  H  2930  1  0.42416000  0.30180500  0.64955400  1
  H  2931  1  0.38968100  0.31946900  0.67151800  1
  H  2932  1  0.44318200  0.29700600  0.61840500  1
  H  2934  1  0.30078400  0.39689600  0.64881700  1
  H  2935  1  0.34477900  0.39596100  0.63287900  1
  H  2936  1  0.28926100  0.38648400  0.62905300  1
  H  2938  1  0.38458400  0.35017500  0.57719200  1
  H  2939  1  0.43634600  0.33929300  0.57117600  1
  H  2940  1  0.38109200  0.32892300  0.56916200  1
  H  2942  1  0.45011300  0.30836500  0.57403700  1
  H  2944  1  0.28204100  0.37205200  0.68037400  1
  C  1  1  0.22883300  0.08506700  0.00252400  1
  C  2  1  0.21546100  0.09954700  0.01240300  1
  C  3  1  0.17211600  0.10028700  0.02100700  1
  C  4  1  0.14197800  0.08598100  0.01972800  1
  C  5  1  0.15324100  0.07134100  0.00971900  1
  C  6  1  0.19760200  0.07085600  0.00140500  1
  C  9  1  0.27299600  0.08530600  0.99384500  1
  C  10  1  0.28528400  0.09891400  0.98247800  1
  C  11  1  0.32955700  0.09915500  0.97422100  1
  C  12  1  0.36162200  0.08582700  0.97783900  1
  C  13  1  0.35081500  0.07227200  0.98925200  1
  C  14  1  0.30630000  0.07222300  0.99716100  1
  C  21  1  0.38747400  0.05897100  0.99224400  1
  C  24  1  0.34379000  0.11352500  0.96260700  1
  C  27  1  0.15700800  0.11627500  0.02999400  1
  C  30  1  0.11681700  0.05753300  0.00887500  1
  C  33  1  0.72883200  0.41467000  0.99722100  1
  C  34  1  0.71546000  0.40018900  0.98734300  1
  C  35  1  0.67211600  0.39944900  0.97873900  1
  C  36  1  0.64197900  0.41375600  0.98001700  1
  C  37  1  0.65324500  0.42839700  0.99002500  1
  C  38  1  0.69760400  0.42888100  0.99834000  1
  C  41  1  0.77299500  0.41443000  0.00590100  1
  C  42  1  0.78528200  0.40082100  0.01726900  1
  C  43  1  0.82955300  0.40058100  0.02552700  1
  C  44  1  0.86162200  0.41390800  0.02190800  1
  C  45  1  0.85081400  0.42746200  0.01049500  1
  C  46  1  0.80630200  0.42751300  0.00258400  1
  C  53  1  0.88747600  0.44076300  0.00750200  1
  C  56  1  0.84378200  0.38621200  0.03714200  1
  C  59  1  0.65700900  0.38346300  0.96975100  1
  C  62  1  0.61682100  0.44220600  0.99086800  1
  C  65  1  0.47892700  0.24720800  0.83480800  1
  C  66  1  0.46558300  0.23733100  0.84929400  1
  C  67  1  0.42221800  0.22874200  0.85005700  1
  C  68  1  0.39203200  0.23002900  0.83576500  1
  C  69  1  0.40326600  0.24003400  0.82111900  1
  C  70  1  0.44764300  0.24833600  0.82061300  1
  C  73  1  0.52308600  0.25589300  0.83503800  1
  C  74  1  0.53538700  0.26725100  0.84865400  1
  C  75  1  0.57965200  0.27551300  0.84889500  1
  C  76  1  0.61170200  0.27191000  0.83555700  1
  C  77  1  0.60089200  0.26050800  0.82199300  1
  C  78  1  0.55637900  0.25259400  0.82194500  1
  C  85  1  0.63756100  0.25752500  0.80868800  1
  C  88  1  0.59390500  0.28710400  0.86328200  1
  C  91  1  0.40711800  0.21977900  0.86605900  1
  C  94  1  0.36678300  0.24088800  0.80733200  1
  C  97  1  0.97893300  0.25252700  0.16493200  1
  C  98  1  0.96558900  0.26240500  0.15044600  1
  C  99  1  0.92222400  0.27099400  0.14968300  1
  C  100  1  0.89204200  0.26970800  0.16397500  1
  C  101  1  0.90327200  0.25970300  0.17862100  1
  C  102  1  0.94764900  0.25140000  0.17912700  1
  C  105  1  0.02309000  0.24384100  0.16470200  1
  C  106  1  0.03538500  0.23248200  0.15108600  1
  C  107  1  0.07964600  0.22421700  0.15084500  1
  C  108  1  0.11169900  0.22781800  0.16418300  1
  C  109  1  0.10089400  0.23922100  0.17774600  1
  C  110  1  0.05638300  0.24713800  0.17779500  1
  C  117  1  0.13756300  0.24220400  0.19105200  1
  C  120  1  0.09389100  0.21262300  0.13646000  1
  C  123  1  0.90712800  0.27995800  0.13368100  1
  C  126  1  0.86678500  0.25884900  0.19240800  1
  C  129  1  0.76731300  0.91513900  0.99650000  1
  C  130  1  0.78258500  0.90026200  0.98760700  1
  C  131  1  0.82605800  0.89964900  0.97904000  1
  C  132  1  0.85436200  0.91451600  0.97919300  1
  C  133  1  0.84024900  0.92975200  0.98765700  1
  C  134  1  0.79627500  0.93001500  0.99618300  1
  C  137  1  0.72364000  0.91475300  0.00555100  1
  C  138  1  0.71303600  0.90150500  0.01757500  1
  C  139  1  0.66960800  0.90131700  0.02642900  1
  C  140  1  0.63679400  0.91441500  0.02288500  1
  C  141  1  0.64567700  0.92750100  0.01073300  1
  C  142  1  0.68923800  0.92743500  0.00214200  1
  C  149  1  0.60827000  0.94054300  0.00785100  1
  C  152  1  0.65649900  0.88706100  0.03836300  1
  C  155  1  0.84249800  0.88346000  0.97076600  1
  C  158  1  0.87143200  0.94517400  0.98724900  1
  C  161  1  0.26731300  0.58459900  0.00323000  1
  C  162  1  0.28258700  0.59947500  0.01212400  1
  C  163  1  0.32606100  0.60008700  0.02069000  1
  C  164  1  0.35436300  0.58522000  0.02053800  1
  C  165  1  0.34024800  0.56998300  0.01207500  1
  C  166  1  0.29627600  0.56972200  0.00354900  1
  C  169  1  0.22364000  0.58498500  0.99418100  1
  C  170  1  0.21303400  0.59823300  0.98215700  1
  C  171  1  0.16960200  0.59842300  0.97330800  1
  C  172  1  0.13678900  0.58532600  0.97685100  1
  C  173  1  0.14567500  0.57223900  0.98900200  1
  C  174  1  0.18923900  0.57230200  0.99759100  1
  C  181  1  0.10826600  0.55919600  0.99188400  1
  C  184  1  0.15649000  0.61268000  0.96137500  1
  C  187  1  0.34250300  0.61627600  0.02896600  1
  C  190  1  0.37142900  0.55456100  0.01248400  1
  C  193  1  0.52101900  0.75248000  0.16447100  1
  C  194  1  0.53450200  0.76239300  0.15002400  1
  C  195  1  0.57789200  0.77097200  0.14933700  1
  C  196  1  0.60791300  0.76966600  0.16367200  1
  C  197  1  0.59651800  0.75964300  0.17828800  1
  C  198  1  0.55215600  0.75132900  0.17871000  1
  C  201  1  0.47690100  0.74376500  0.16416200  1
  C  202  1  0.46478600  0.73241700  0.15051700  1
  C  203  1  0.42062300  0.72408200  0.15023400  1
  C  204  1  0.38847100  0.72760800  0.16356100  1
  C  205  1  0.39908500  0.73900500  0.17715300  1
  C  206  1  0.44350700  0.74698900  0.17723900  1
  C  213  1  0.36234000  0.74190900  0.19044900  1
  C  216  1  0.40657200  0.71249400  0.13581200  1
  C  219  1  0.59319800  0.77996000  0.13337600  1
  C  222  1  0.63286200  0.75878100  0.19212700  1
  C  225  1  0.02101400  0.74726000  0.83526400  1
  C  226  1  0.03449500  0.73734800  0.84971000  1
  C  227  1  0.07788400  0.72876800  0.85039800  1
  C  228  1  0.10790600  0.73007300  0.83606100  1
  C  229  1  0.09651400  0.74009500  0.82144600  1
  C  230  1  0.05215000  0.74841000  0.82102500  1
  C  233  1  0.97689700  0.75597600  0.83557200  1
  C  234  1  0.96478800  0.76732600  0.84921800  1
  C  235  1  0.92062500  0.77566500  0.84950000  1
  C  236  1  0.88847300  0.77213800  0.83617200  1
  C  237  1  0.89908100  0.76074000  0.82258200  1
  C  238  1  0.94349900  0.75275500  0.82249600  1
  C  245  1  0.86233500  0.75783800  0.80928500  1
  C  248  1  0.90658200  0.78725500  0.86392000  1
  C  251  1  0.09319200  0.71978000  0.86635900  1
  C  254  1  0.13285600  0.74095800  0.80760800  1
  C  257  1  0.72880400  0.58518600  0.50249400  1
  C  258  1  0.71533800  0.59962900  0.51241900  1
  C  259  1  0.67194500  0.60032300  0.52099700  1
  C  260  1  0.64190600  0.58599300  0.51968200  1
  C  261  1  0.65327600  0.57137800  0.50965300  1
  C  262  1  0.69763900  0.57095500  0.50133600  1
  C  265  1  0.77291400  0.58549200  0.49376800  1
  C  266  1  0.78504100  0.59914800  0.48243200  1
  C  267  1  0.82918200  0.59942700  0.47407900  1
  C  268  1  0.86130000  0.58607800  0.47757300  1
  C  269  1  0.85068500  0.57247300  0.48895400  1
  C  270  1  0.80628400  0.57239600  0.49695700  1
  C  277  1  0.88741000  0.55915700  0.49182700  1
  C  280  1  0.84325400  0.61386400  0.46250900  1
  C  283  1  0.65662800  0.61628600  0.52998300  1
  C  286  1  0.61690500  0.55755000  0.50878600  1
  C  289  1  0.22880000  0.91455100  0.49725500  1
  C  290  1  0.21533500  0.90010700  0.48733000  1
  C  291  1  0.17194200  0.89941500  0.47875200  1
  C  292  1  0.14190500  0.91374500  0.48006600  1
  C  293  1  0.15327700  0.92835900  0.49009500  1
  C  294  1  0.19763800  0.92878300  0.49841200  1
  C  297  1  0.27291200  0.91424400  0.50598100  1
  C  298  1  0.28503500  0.90058800  0.51731900  1
  C  299  1  0.32917700  0.90031000  0.52567200  1
  C  300  1  0.36129700  0.91365900  0.52217700  1
  C  301  1  0.35068200  0.92726200  0.51079300  1
  C  302  1  0.30628400  0.92733900  0.50279000  1
  C  309  1  0.38741100  0.94057600  0.50791800  1
  C  312  1  0.34324600  0.88587300  0.53724100  1
  C  315  1  0.15662300  0.88345100  0.46976600  1
  C  318  1  0.11690600  0.94218800  0.49096100  1
  C  321  1  0.98245300  0.74648600  0.33451700  1
  C  322  1  0.96719900  0.73757300  0.34938600  1
  C  323  1  0.92373200  0.72900100  0.35000200  1
  C  324  1  0.89541800  0.72916300  0.33513700  1
  C  325  1  0.90950300  0.73764100  0.31990500  1
  C  326  1  0.95346300  0.74617700  0.31964500  1
  C  329  1  0.02612200  0.75554500  0.33490300  1
  C  330  1  0.03675100  0.76754600  0.34817000  1
  C  331  1  0.08017300  0.77640500  0.34836600  1
  C  332  1  0.11294100  0.77290100  0.33524000  1
  C  333  1  0.10404100  0.76077700  0.32212900  1
  C  334  1  0.06049500  0.75217300  0.32219700  1
  C  341  1  0.14142700  0.75793400  0.30906400  1
  C  344  1  0.09332600  0.78830200  0.36265000  1
  C  347  1  0.90727800  0.72072300  0.36619000  1
  C  350  1  0.87831300  0.73722500  0.30448300  1
  C  353  1  0.48246100  0.75324700  0.66522000  1
  C  354  1  0.46721400  0.76215800  0.65034800  1
  C  355  1  0.42374400  0.77073000  0.64973300  1
  C  356  1  0.39542900  0.77057100  0.66459600  1
  C  357  1  0.40951100  0.76209500  0.67983000  1
  C  358  1  0.45346800  0.75355700  0.68009100  1
  C  361  1  0.52612700  0.74418600  0.66483700  1
  C  362  1  0.53675500  0.73218100  0.65157100  1
  C  363  1  0.58017000  0.72331700  0.65138200  1
  C  364  1  0.61293700  0.72682300  0.66450700  1
  C  365  1  0.60404000  0.73895200  0.67761500  1
  C  366  1  0.56050000  0.74755800  0.67754200  1
  C  373  1  0.64142700  0.74179800  0.69068000  1
  C  376  1  0.59332100  0.71141400  0.63710200  1
  C  379  1  0.40729700  0.77900900  0.63354300  1
  C  382  1  0.37832100  0.76251200  0.69525200  1
  C  385  1  0.26737500  0.41502700  0.49654000  1
  C  386  1  0.28276400  0.40019700  0.48758800  1
  C  387  1  0.32626300  0.39965500  0.47903000  1
  C  388  1  0.35441900  0.41456000  0.47921500  1
  C  389  1  0.34017200  0.42976000  0.48771100  1
  C  390  1  0.29623000  0.42993700  0.49626100  1
  C  393  1  0.22375200  0.41456500  0.50563300  1
  C  394  1  0.21330200  0.40125500  0.51761100  1
  C  395  1  0.16998900  0.40101200  0.52654300  1
  C  396  1  0.13713000  0.41413200  0.52312700  1
  C  397  1  0.14582900  0.42728500  0.51102400  1
  C  398  1  0.18928100  0.42725900  0.50235300  1
  C  405  1  0.10835900  0.44034200  0.50826600  1
  C  408  1  0.15703400  0.38668000  0.53841900  1
  C  411  1  0.34294300  0.38350400  0.47074100  1
  C  414  1  0.37119100  0.44522900  0.48729900  1
  C  417  1  0.76737600  0.08470900  0.50318800  1
  C  418  1  0.78277000  0.09953700  0.51214200  1
  C  419  1  0.82627200  0.10007700  0.52069900  1
  C  420  1  0.85441800  0.08517200  0.52051300  1
  C  421  1  0.84016800  0.06997300  0.51201600  1
  C  422  1  0.79622600  0.06979700  0.50346600  1
  C  425  1  0.72375200  0.08517400  0.49409600  1
  C  426  1  0.71330200  0.09848700  0.48212100  1
  C  427  1  0.66998600  0.09873400  0.47319200  1
  C  428  1  0.63712300  0.08561500  0.47660800  1
  C  429  1  0.64582100  0.07246000  0.48870700  1
  C  430  1  0.68927700  0.07248100  0.49737600  1
  C  437  1  0.60834700  0.05940300  0.49146400  1
  C  440  1  0.65703400  0.11306900  0.46131900  1
  C  443  1  0.84295600  0.11622700  0.52899000  1
  C  446  1  0.87118300  0.05450200  0.51242700  1
  C  449  1  0.01744300  0.25319900  0.66475300  1
  C  450  1  0.03287200  0.26215300  0.64993000  1
  C  451  1  0.07636400  0.27071600  0.64940800  1
  C  452  1  0.10447700  0.27052800  0.66432200  1
  C  453  1  0.09018800  0.26203000  0.67951600  1
  C  454  1  0.04624500  0.25348000  0.67967500  1
  C  457  1  0.97380400  0.24412000  0.66428000  1
  C  458  1  0.96335700  0.23213600  0.65097500  1
  C  459  1  0.92002000  0.22321900  0.65072700  1
  C  460  1  0.88714400  0.22665500  0.66383600  1
  C  461  1  0.89585500  0.23876200  0.67698300  1
  C  462  1  0.93932200  0.24742000  0.67696200  1
  C  469  1  0.85839200  0.24153200  0.69003600  1
  C  472  1  0.90707500  0.21133000  0.63640800  1
  C  475  1  0.09306100  0.27902500  0.63326900  1
  C  478  1  0.12115700  0.26243500  0.69499800  1
  C  481  1  0.51744300  0.24654600  0.33498200  1
  C  482  1  0.53287200  0.23759500  0.34980600  1
  C  483  1  0.57636700  0.22903300  0.35032700  1
  C  484  1  0.60447800  0.22922000  0.33541300  1
  C  485  1  0.59019000  0.23771800  0.32022000  1
  C  486  1  0.54624400  0.24626600  0.32005900  1
  C  489  1  0.47380500  0.25562600  0.33545400  1
  C  490  1  0.46335500  0.26761200  0.34875600  1
  C  491  1  0.42002500  0.27653100  0.34900000  1
  C  492  1  0.38714800  0.27309300  0.33589200  1
  C  493  1  0.39585600  0.26098300  0.32274900  1
  C  494  1  0.43931900  0.25232300  0.32277300  1
  C  501  1  0.35839700  0.25821000  0.30969500  1
  C  504  1  0.40708300  0.28842700  0.36331600  1
  C  507  1  0.59306200  0.22072300  0.36646600  1
  C  510  1  0.62116300  0.23731400  0.30473800  1
  C  513  1  0.08767800  0.03058200  0.99673600  1
  C  514  1  0.09941100  0.01377100  0.00237600  1
  C  516  1  0.01936500  0.00463400  0.99966500  1
  C  517  1  0.00582900  0.02121500  0.99385600  1
  C  518  1  0.04055900  0.03401200  0.99231800  1
  C  520  1  0.98554900  0.99149100  0.00133000  1
  C  521  1  0.91936600  0.96473400  0.00430900  1
  C  523  1  0.96750700  0.96205700  0.00813100  1
  C  524  1  0.90524900  0.98140200  0.99920200  1
  C  525  1  0.93794300  0.99488900  0.99742700  1
  C  526  1  0.92472600  0.01144500  0.99174100  1
  C  527  1  0.95845900  0.02448700  0.98988200  1
  C  531  1  0.14695700  0.00828500  0.00749400  1
  C  535  1  0.98707100  0.94527800  0.01350800  1
  C  543  1  0.58768500  0.46915700  0.00300600  1
  C  544  1  0.59941500  0.48596700  0.99736200  1
  C  546  1  0.51936700  0.49510300  0.00007100  1
  C  547  1  0.50583100  0.47852300  0.00588300  1
  C  548  1  0.54056500  0.46572700  0.00742500  1
  C  550  1  0.48555300  0.50824500  0.99840400  1
  C  551  1  0.41937000  0.53500200  0.99542700  1
  C  553  1  0.46750800  0.53767900  0.99160200  1
  C  554  1  0.40525000  0.51833200  0.00052700  1
  C  555  1  0.43794400  0.50484700  0.00230700  1
  C  556  1  0.42473000  0.48829300  0.00799800  1
  C  557  1  0.45846400  0.47525000  0.00985400  1
  C  561  1  0.64696100  0.49145400  0.99224900  1
  C  565  1  0.48706800  0.55445600  0.98621800  1
  C  573  1  0.33759500  0.25300000  0.78037400  1
  C  574  1  0.34928800  0.24733600  0.76356600  1
  C  576  1  0.26923300  0.25005700  0.75444200  1
  C  577  1  0.25573300  0.25588600  0.77102000  1
  C  578  1  0.29048800  0.25743100  0.78380800  1
  C  580  1  0.23539800  0.24838900  0.74130700  1
  C  581  1  0.16917500  0.24540500  0.71455900  1
  C  583  1  0.21730400  0.24155800  0.71188300  1
  C  584  1  0.15509500  0.25053500  0.73122500  1
  C  585  1  0.18780500  0.25231000  0.74470700  1
  C  586  1  0.17462400  0.25801900  0.76125900  1
  C  587  1  0.20837600  0.25987400  0.77429700  1
  C  591  1  0.39681500  0.24220000  0.75807600  1
  C  595  1  0.23684700  0.23615200  0.69511000  1
  C  603  1  0.83759700  0.24673900  0.21936600  1
  C  604  1  0.84928900  0.25240100  0.23617500  1
  C  606  1  0.76923400  0.24968400  0.24529600  1
  C  607  1  0.75573300  0.24385200  0.22871900  1
  C  608  1  0.79049100  0.24230500  0.21593200  1
  C  610  1  0.73539500  0.25135500  0.25843200  1
  C  611  1  0.66916700  0.25435000  0.28517500  1
  C  613  1  0.71730100  0.25818800  0.28785400  1
  C  614  1  0.65508500  0.24922100  0.26850900  1
  C  615  1  0.68780100  0.24743800  0.25503000  1
  C  616  1  0.67462100  0.24172900  0.23847800  1
  C  617  1  0.70837600  0.23986800  0.22544200  1
  C  621  1  0.89681700  0.25753800  0.24166600  1
  C  625  1  0.73684000  0.26358800  0.30463000  1
  C  633  1  0.90912900  0.46886200  0.99643400  1
  C  634  1  0.90140100  0.48425900  0.00580700  1
  C  636  1  0.97936000  0.49403400  0.99956400  1
  C  637  1  0.98845600  0.47906200  0.98965500  1
  C  638  1  0.95289700  0.46655700  0.98824500  1
  C  640  1  0.01443500  0.50666200  0.00158300  1
  C  641  1  0.08257500  0.53254700  0.00527400  1
  C  643  1  0.03829800  0.53381500  0.01352400  1
  C  644  1  0.09237200  0.51763000  0.99554900  1
  C  645  1  0.05859900  0.50454600  0.99351300  1
  C  646  1  0.06729200  0.48966700  0.98358700  1
  C  647  1  0.03255200  0.47698100  0.98173700  1
  C  651  1  0.85758400  0.48843200  0.01503300  1
  C  655  1  0.02465500  0.54826700  0.02485500  1
  C  663  1  0.40912300  0.03086900  0.00330800  1
  C  664  1  0.40140200  0.01547600  0.99392800  1
  C  666  1  0.47936100  0.00570100  0.00017100  1
  C  667  1  0.48845400  0.02067000  0.01008500  1
  C  668  1  0.45288700  0.03317300  0.01150000  1
  C  670  1  0.51443800  0.99307400  0.99814800  1
  C  671  1  0.58257700  0.96719000  0.99445700  1
  C  673  1  0.53830200  0.96592400  0.98620500  1
  C  674  1  0.59238300  0.98211100  0.00417400  1
  C  675  1  0.55860400  0.99519300  0.00621600  1
  C  676  1  0.56729500  0.01006900  0.01614500  1
  C  677  1  0.53254700  0.02275100  0.01800200  1
  C  681  1  0.35757500  0.01130100  0.98470800  1
  C  685  1  0.52465000  0.95146600  0.97488000  1
  C  693  1  0.65926900  0.24642400  0.78059300  1
  C  694  1  0.65152400  0.25574500  0.76516400  1
  C  696  1  0.72939500  0.24939700  0.75535200  1
  C  697  1  0.73852300  0.23955400  0.77036600  1
  C  698  1  0.70301900  0.23822300  0.78290300  1
  C  700  1  0.76439900  0.25132000  0.74268000  1
  C  701  1  0.83242900  0.25484100  0.71672000  1
  C  703  1  0.78818900  0.26311800  0.71545500  1
  C  704  1  0.84224600  0.24517800  0.73167700  1
  C  705  1  0.80853400  0.24322800  0.74479800  1
  C  706  1  0.81726600  0.23337700  0.75972400  1
  C  707  1  0.78259200  0.23161400  0.77244700  1
  C  711  1  0.60773500  0.26498200  0.76098100  1
  C  715  1  0.77453800  0.27441200  0.70097300  1
  C  723  1  0.15928200  0.25330100  0.21914700  1
  C  724  1  0.15152400  0.24398900  0.23457900  1
  C  726  1  0.22939300  0.25033700  0.24439200  1
  C  727  1  0.23852600  0.26017700  0.22937700  1
  C  728  1  0.20302300  0.26150800  0.21683900  1
  C  730  1  0.26439900  0.24841200  0.25706300  1
  C  731  1  0.33244100  0.24487900  0.28301800  1
  C  733  1  0.28818400  0.23661400  0.28429100  1
  C  734  1  0.34225700  0.25454400  0.26806100  1
  C  735  1  0.30853800  0.25650000  0.25494300  1
  C  736  1  0.31727000  0.26635200  0.24001700  1
  C  737  1  0.28259500  0.26811500  0.22729400  1
  C  741  1  0.10773100  0.23475300  0.23876200  1
  C  745  1  0.27452500  0.22532600  0.29877500  1
  C  753  1  0.66189300  0.74665900  0.21909600  1
  C  754  1  0.65018000  0.75233000  0.23590000  1
  C  756  1  0.73022100  0.74960200  0.24504200  1
  C  757  1  0.74373600  0.74376400  0.22846800  1
  C  758  1  0.70899900  0.74221600  0.21567500  1
  C  760  1  0.76404900  0.75127100  0.25818000  1
  C  761  1  0.83026700  0.75426200  0.28493000  1
  C  763  1  0.78213300  0.75810300  0.28760600  1
  C  764  1  0.84435200  0.74913300  0.26826500  1
  C  765  1  0.81164400  0.74735100  0.25478500  1
  C  766  1  0.82484100  0.74164100  0.23823400  1
  C  767  1  0.79109300  0.73977400  0.22519800  1
  C  771  1  0.60264800  0.75748000  0.24137300  1
  C  775  1  0.76259000  0.76350600  0.30437900  1
  C  783  1  0.16188700  0.75307800  0.78063800  1
  C  784  1  0.15017700  0.74740300  0.76383500  1
  C  786  1  0.23021700  0.75013600  0.75469300  1
  C  787  1  0.24373200  0.75597500  0.77126700  1
  C  788  1  0.20899200  0.75752400  0.78405900  1
  C  790  1  0.26404500  0.74846500  0.74155400  1
  C  791  1  0.33026300  0.74548000  0.71480300  1
  C  793  1  0.28213200  0.74163600  0.71212900  1
  C  794  1  0.34435100  0.75060300  0.73147100  1
  C  795  1  0.31164100  0.75238800  0.74495000  1
  C  796  1  0.32483300  0.75810300  0.76149900  1
  C  797  1  0.29108900  0.75996500  0.77453700  1
  C  801  1  0.10264500  0.74225900  0.75835900  1
  C  805  1  0.26259200  0.73622500  0.69535700  1
  C  813  1  0.34041000  0.75296700  0.21854900  1
  C  814  1  0.34816800  0.74366200  0.23398600  1
  C  816  1  0.27026100  0.74997900  0.24378000  1
  C  817  1  0.26112400  0.75981100  0.22876000  1
  C  818  1  0.29663600  0.76114700  0.21622700  1
  C  820  1  0.23525100  0.74805300  0.25645000  1
  C  821  1  0.16722200  0.74454600  0.28241100  1
  C  823  1  0.21146700  0.73627200  0.28368400  1
  C  824  1  0.15740100  0.75419600  0.26744700  1
  C  825  1  0.19110900  0.75613900  0.25432400  1
  C  826  1  0.18237400  0.76598200  0.23939400  1
  C  827  1  0.21705000  0.76774300  0.22667100  1
  C  831  1  0.39200100  0.73446100  0.23818900  1
  C  835  1  0.22512900  0.72499400  0.29817700  1
  C  843  1  0.84039900  0.74678000  0.78118600  1
  C  844  1  0.84816900  0.75607800  0.76574700  1
  C  846  1  0.77026600  0.74976100  0.75595100  1
  C  847  1  0.76112400  0.73993100  0.77097200  1
  C  848  1  0.79663100  0.73859600  0.78350700  1
  C  850  1  0.73525600  0.75168800  0.74328100  1
  C  851  1  0.66721100  0.75520800  0.71732600  1
  C  853  1  0.71147600  0.76347000  0.71604500  1
  C  854  1  0.65739100  0.74555600  0.73228900  1
  C  855  1  0.69110700  0.74360800  0.74540800  1
  C  856  1  0.68237100  0.73376400  0.76033800  1
  C  857  1  0.71704500  0.73200200  0.77306100  1
  C  861  1  0.89200300  0.76527800  0.76154200  1
  C  865  1  0.72514500  0.77474100  0.70154900  1
  C  873  1  0.58784500  0.53056500  0.49669400  1
  C  874  1  0.59952400  0.51376400  0.50238000  1
  C  876  1  0.51947200  0.50463200  0.49964000  1
  C  877  1  0.50598900  0.52120300  0.49378600  1
  C  878  1  0.54074700  0.53399000  0.49223800  1
  C  880  1  0.48562300  0.49149900  0.50131300  1
  C  881  1  0.41935300  0.46476400  0.50431400  1
  C  883  1  0.46748000  0.46208300  0.50816600  1
  C  884  1  0.40530600  0.48142900  0.49917000  1
  C  885  1  0.43803900  0.49490100  0.49738100  1
  C  886  1  0.42487700  0.51145000  0.49165500  1
  C  887  1  0.45864200  0.52447900  0.48978300  1
  C  891  1  0.64703800  0.50828400  0.50754200  1
  C  895  1  0.48699800  0.44531000  0.51358500  1
  C  903  1  0.08784500  0.96917200  0.50305000  1
  C  904  1  0.09952200  0.98597400  0.49736200  1
  C  906  1  0.01947100  0.99510400  0.50009800  1
  C  907  1  0.00598800  0.97853300  0.50595300  1
  C  908  1  0.04074800  0.96574700  0.50750600  1
  C  910  1  0.98561500  0.00823500  0.49841900  1
  C  911  1  0.91934100  0.03496700  0.49541000  1
  C  913  1  0.96747200  0.03765000  0.49156500  1
  C  914  1  0.90529100  0.01830200  0.50055100  1
  C  915  1  0.93802700  0.00483200  0.50234900  1
  C  916  1  0.92486900  0.98828500  0.50808100  1
  C  917  1  0.95863800  0.97525600  0.50995200  1
  C  921  1  0.14704000  0.99145500  0.49220600  1
  C  925  1  0.98698300  0.05442200  0.48614200  1
  C  933  1  0.40939600  0.96867900  0.49683500  1
  C  934  1  0.40159700  0.98415600  0.50607100  1
  C  936  1  0.47940600  0.99399200  0.49964900  1
  C  937  1  0.48859700  0.97892600  0.48989500  1
  C  938  1  0.45315600  0.96635200  0.48864700  1
  C  940  1  0.51434000  0.00670900  0.50147400  1
  C  941  1  0.58226900  0.03273900  0.50481700  1
  C  943  1  0.53803600  0.03402500  0.51309800  1
  C  944  1  0.59211700  0.01773300  0.49523400  1
  C  945  1  0.55846100  0.00457700  0.49337400  1
  C  946  1  0.56724600  0.98959800  0.48361200  1
  C  947  1  0.53264500  0.97683500  0.48194400  1
  C  951  1  0.35777400  0.98837300  0.51527400  1
  C  955  1  0.52434200  0.04856000  0.52431700  1
  C  963  1  0.90939500  0.53105200  0.50290200  1
  C  964  1  0.90159000  0.51557500  0.49366900  1
  C  966  1  0.97940200  0.50573800  0.50008900  1
  C  967  1  0.98858900  0.52080400  0.50984600  1
  C  968  1  0.95314500  0.53337500  0.51109800  1
  C  970  1  0.01434100  0.49302400  0.49825900  1
  C  971  1  0.08228800  0.46700400  0.49489700  1
  C  973  1  0.03804000  0.46571100  0.48662700  1
  C  974  1  0.09213200  0.48200600  0.50448500  1
  C  975  1  0.05846700  0.49515700  0.50635600  1
  C  976  1  0.06724700  0.51013300  0.51612300  1
  C  977  1  0.03264100  0.52289400  0.51779500  1
  C  981  1  0.85777000  0.51136000  0.48446500  1
  C  985  1  0.02434600  0.45117700  0.47541100  1
  C  993  1  0.42097300  0.19328100  0.88250900  1
  C  994  1  0.41849600  0.17576100  0.87749900  1
  C  996  1  0.38196300  0.16821400  0.90430000  1
  C  997  1  0.38337300  0.18558700  0.90990300  1
  C  998  1  0.40380200  0.19794500  0.89894000  1
  C  1000  1  0.36257100  0.15541900  0.91502800  1
  C  1001  1  0.32629300  0.12933600  0.93637800  1
  C  1003  1  0.34598900  0.12552400  0.92000100  1
  C  1004  1  0.32451100  0.14675400  0.94159700  1
  C  1005  1  0.34328600  0.15995100  0.93122600  1
  C  1006  1  0.34410100  0.17730500  0.93660300  1
  C  1007  1  0.36440700  0.19000700  0.92608800  1
  C  1011  1  0.43517000  0.16896500  0.86080900  1
  C  1015  1  0.35060200  0.10788200  0.91306400  1
  C  1023  1  0.92098900  0.30645500  0.11722900  1
  C  1024  1  0.91852300  0.32397500  0.12223900  1
  C  1026  1  0.88197300  0.33152300  0.09544100  1
  C  1027  1  0.88337200  0.31414900  0.08984000  1
  C  1028  1  0.90381500  0.30179100  0.10079900  1
  C  1030  1  0.86257000  0.34431700  0.08471600  1
  C  1031  1  0.82627500  0.37040000  0.06337100  1
  C  1033  1  0.84599700  0.37421400  0.07974300  1
  C  1034  1  0.82447000  0.35298300  0.05815500  1
  C  1035  1  0.84326400  0.33978600  0.06852200  1
  C  1036  1  0.84409400  0.32243300  0.06314100  1
  C  1037  1  0.86438200  0.30972900  0.07365800  1
  C  1041  1  0.93521100  0.33077200  0.13892700  1
  C  1045  1  0.85060800  0.39185600  0.08668100  1
  C  1053  1  0.67090900  0.36705500  0.94323000  1
  C  1054  1  0.66845000  0.37209700  0.92571800  1
  C  1056  1  0.63195600  0.34530400  0.91811700  1
  C  1057  1  0.63334500  0.33967000  0.93547900  1
  C  1058  1  0.65375200  0.35061300  0.94786200  1
  C  1060  1  0.61259800  0.33459700  0.90529900  1
  C  1061  1  0.57639100  0.31328700  0.87916800  1
  C  1063  1  0.59603600  0.32968000  0.87539200  1
  C  1064  1  0.57461400  0.30803200  0.89657500  1
  C  1065  1  0.59333500  0.31838500  0.90979600  1
  C  1066  1  0.59415000  0.31297400  0.92714100  1
  C  1067  1  0.61438900  0.32347500  0.93986700  1
  C  1071  1  0.68511700  0.38880200  0.91895500  1
  C  1075  1  0.60062200  0.33666000  0.85776700  1
  C  1083  1  0.17091100  0.13268500  0.05651400  1
  C  1084  1  0.16847000  0.12764400  0.07402600  1
  C  1086  1  0.13194900  0.15443400  0.08162700  1
  C  1087  1  0.13332700  0.16006400  0.06426400  1
  C  1088  1  0.15374900  0.14912600  0.05188200  1
  C  1090  1  0.11257700  0.16513700  0.09444500  1
  C  1091  1  0.07634200  0.18644000  0.12057500  1
  C  1093  1  0.09603500  0.17005600  0.12435300  1
  C  1094  1  0.07454300  0.19169300  0.10316800  1
  C  1095  1  0.09328900  0.18134500  0.08994700  1
  C  1096  1  0.09408500  0.18675300  0.07260200  1
  C  1097  1  0.11434800  0.17625700  0.05987600  1
  C  1101  1  0.18515400  0.11094300  0.08078900  1
  C  1105  1  0.10065700  0.16308300  0.14198000  1
  C  1113  1  0.58006500  0.80667500  0.11719900  1
  C  1114  1  0.58268200  0.82413300  0.12241600  1
  C  1116  1  0.62001900  0.83191200  0.09582900  1
  C  1117  1  0.61849000  0.81460500  0.09002700  1
  C  1118  1  0.59760000  0.80216400  0.10077800  1
  C  1120  1  0.63975100  0.84479600  0.08529100  1
  C  1121  1  0.67613300  0.87107900  0.06420800  1
  C  1123  1  0.65633800  0.87473900  0.08060100  1
  C  1124  1  0.67806000  0.85370600  0.05884900  1
  C  1125  1  0.65922400  0.84041300  0.06908200  1
  C  1126  1  0.65834900  0.82311700  0.06351900  1
  C  1127  1  0.63773600  0.81033100  0.07384800  1
  C  1131  1  0.56566800  0.83077300  0.13912100  1
  C  1135  1  0.65155800  0.89232700  0.08765800  1
  C  1143  1  0.08005300  0.69306400  0.88253600  1
  C  1144  1  0.08266600  0.67560700  0.87731800  1
  C  1146  1  0.12000300  0.66782800  0.90390700  1
  C  1147  1  0.11847400  0.68513500  0.90970700  1
  C  1148  1  0.09757800  0.69757600  0.89895800  1
  C  1150  1  0.13973900  0.65494500  0.91444400  1
  C  1151  1  0.17610100  0.62866100  0.93552800  1
  C  1153  1  0.15632100  0.62500000  0.91913400  1
  C  1154  1  0.17806900  0.64603500  0.94088300  1
  C  1155  1  0.15921700  0.65932700  0.93065200  1
  C  1156  1  0.15831900  0.67662100  0.93621800  1
  C  1157  1  0.13772600  0.68940800  0.92588600  1
  C  1161  1  0.06565200  0.66896600  0.86061400  1
  C  1165  1  0.15156300  0.60741300  0.91207300  1
  C  1173  1  0.33013000  0.63299200  0.05546800  1
  C  1174  1  0.33227500  0.62790300  0.07297100  1
  C  1176  1  0.36950800  0.65452800  0.08066800  1
  C  1177  1  0.36857100  0.66017900  0.06330400  1
  C  1178  1  0.34806300  0.64932400  0.05086200  1
  C  1180  1  0.38878200  0.66517300  0.09355500  1
  C  1181  1  0.42454100  0.68640600  0.11983400  1
  C  1183  1  0.40469700  0.67002500  0.12352200  1
  C  1184  1  0.42677000  0.69168500  0.10244100  1
  C  1185  1  0.40831500  0.68136300  0.08914100  1
  C  1186  1  0.40796500  0.68679000  0.07180000  1
  C  1187  1  0.38789700  0.67633600  0.05899500  1
  C  1191  1  0.31494700  0.61127100  0.07968900  1
  C  1195  1  0.39970100  0.66302000  0.14112300  1
  C  1203  1  0.83012400  0.86674300  0.94426400  1
  C  1204  1  0.83226100  0.87183200  0.92676100  1
  C  1206  1  0.86951800  0.84521100  0.91906400  1
  C  1207  1  0.86858400  0.83956000  0.93642700  1
  C  1208  1  0.84806100  0.85041100  0.94886900  1
  C  1210  1  0.88880200  0.83456800  0.90617600  1
  C  1211  1  0.92458900  0.81334200  0.87989900  1
  C  1213  1  0.90470300  0.82971500  0.87620900  1
  C  1214  1  0.92683200  0.80806400  0.89729100  1
  C  1215  1  0.90835200  0.81838100  0.91059000  1
  C  1216  1  0.90801600  0.81295500  0.92793200  1
  C  1217  1  0.88792700  0.82340500  0.94073600  1
  C  1221  1  0.81492200  0.88846200  0.92004200  1
  C  1225  1  0.89968300  0.83671500  0.85860700  1
  C  1233  1  0.91958300  0.69421700  0.38292200  1
  C  1234  1  0.91741700  0.67670900  0.37784700  1
  C  1236  1  0.88026900  0.66902600  0.40449500  1
  C  1237  1  0.88122100  0.68639400  0.41013200  1
  C  1238  1  0.90168400  0.69883100  0.39925800  1
  C  1240  1  0.86104400  0.65614300  0.41516100  1
  C  1241  1  0.82532000  0.62987800  0.43642300  1
  C  1243  1  0.84514300  0.62617900  0.42004200  1
  C  1244  1  0.82313000  0.64727400  0.44169500  1
  C  1245  1  0.84156800  0.66056600  0.43135700  1
  C  1246  1  0.84191000  0.67791300  0.43676800  1
  C  1247  1  0.86195400  0.69071200  0.42629600  1
  C  1251  1  0.93470000  0.66997900  0.36121300  1
  C  1255  1  0.85011500  0.60857300  0.41304600  1
  C  1263  1  0.41960500  0.80551600  0.61681300  1
  C  1264  1  0.41744600  0.82302200  0.62188900  1
  C  1266  1  0.38028700  0.83070700  0.59524400  1
  C  1267  1  0.38123200  0.81334000  0.58960500  1
  C  1268  1  0.40170600  0.80090300  0.60047700  1
  C  1270  1  0.36104900  0.84359100  0.58458200  1
  C  1271  1  0.32530700  0.86985700  0.56332500  1
  C  1273  1  0.34514800  0.87355600  0.57970300  1
  C  1274  1  0.32309700  0.85246100  0.55805400  1
  C  1275  1  0.34155900  0.83916800  0.56838700  1
  C  1276  1  0.34192100  0.82182300  0.56297100  1
  C  1277  1  0.36195100  0.80902300  0.57344400  1
  C  1281  1  0.43473600  0.82975100  0.63852200  1
  C  1285  1  0.35010900  0.89116100  0.58670200  1
  C  1293  1  0.16968500  0.86726000  0.44304200  1
  C  1294  1  0.16703000  0.87246400  0.42558100  1
  C  1296  1  0.12982900  0.84584400  0.41781800  1
  C  1297  1  0.13138300  0.84005800  0.43512900  1
  C  1298  1  0.15222400  0.85083200  0.44756400  1
  C  1300  1  0.11015900  0.83528000  0.40494000  1
  C  1301  1  0.07387600  0.81415200  0.37866800  1
  C  1303  1  0.09353700  0.83056600  0.37500000  1
  C  1304  1  0.07200900  0.80880000  0.39604500  1
  C  1305  1  0.09078000  0.81905800  0.40933300  1
  C  1306  1  0.09169800  0.81350800  0.42663100  1
  C  1307  1  0.11221900  0.82386800  0.43941400  1
  C  1311  1  0.18396600  0.88917500  0.41892800  1
  C  1315  1  0.09821300  0.83762800  0.35741100  1
  C  1323  1  0.66969200  0.63247800  0.55670500  1
  C  1324  1  0.66705700  0.62727500  0.57416700  1
  C  1326  1  0.62982500  0.65388900  0.58193200  1
  C  1327  1  0.63136800  0.65967600  0.56462100  1
  C  1328  1  0.65222300  0.64890700  0.55218500  1
  C  1330  1  0.61014200  0.66444800  0.59481000  1
  C  1331  1  0.57382300  0.68556800  0.62108300  1
  C  1333  1  0.59354500  0.66916400  0.62475300  1
  C  1334  1  0.57193400  0.69091900  0.60370600  1
  C  1335  1  0.59073200  0.68066700  0.59041900  1
  C  1336  1  0.59163100  0.68621500  0.57311900  1
  C  1337  1  0.61217800  0.67586200  0.56033800  1
  C  1341  1  0.68401500  0.61056700  0.58082000  1
  C  1345  1  0.59825700  0.66210800  0.64234300  1
  C  1353  1  0.08146300  0.30573400  0.61679100  1
  C  1354  1  0.08374100  0.32318200  0.62206000  1
  C  1356  1  0.12166400  0.33108600  0.59562400  1
  C  1357  1  0.12061600  0.31378000  0.58979800  1
  C  1358  1  0.09972200  0.30126300  0.60047000  1
  C  1360  1  0.14121000  0.34405400  0.58513900  1
  C  1361  1  0.17702800  0.37051100  0.56413200  1
  C  1363  1  0.15709900  0.37406500  0.58052600  1
  C  1364  1  0.17936900  0.35315900  0.55872900  1
  C  1365  1  0.16087400  0.33977300  0.56893400  1
  C  1366  1  0.16049000  0.32248200  0.56334900  1
  C  1367  1  0.14016000  0.30960200  0.57364200  1
  C  1371  1  0.06611000  0.32976500  0.63870300  1
  C  1375  1  0.15195900  0.39161800  0.58763400  1
  C  1383  1  0.58146100  0.19401300  0.38294400  1
  C  1384  1  0.58373500  0.17656600  0.37767500  1
  C  1386  1  0.62165600  0.16866100  0.40411100  1
  C  1387  1  0.62061000  0.18596800  0.40993600  1
  C  1388  1  0.59971300  0.19848300  0.39926500  1
  C  1390  1  0.64120600  0.15569400  0.41459600  1
  C  1391  1  0.67700400  0.12923500  0.43560400  1
  C  1393  1  0.65709000  0.12568100  0.41920800  1
  C  1394  1  0.67938300  0.14658900  0.44100400  1
  C  1395  1  0.66087500  0.15997300  0.43080100  1
  C  1396  1  0.66046600  0.17726300  0.43638900  1
  C  1397  1  0.64015300  0.19014400  0.42609300  1
  C  1401  1  0.56610900  0.16998100  0.36103100  1
  C  1405  1  0.65197100  0.10812900  0.41209700  1
  C  1413  1  0.83137300  0.13275200  0.55566900  1
  C  1414  1  0.83367800  0.12751800  0.57312800  1
  C  1416  1  0.87158900  0.15397500  0.58097200  1
  C  1417  1  0.87051800  0.15976500  0.56365300  1
  C  1418  1  0.84961100  0.14906600  0.55116300  1
  C  1420  1  0.89114600  0.16448800  0.59391500  1
  C  1421  1  0.92695100  0.18555900  0.62032200  1
  C  1423  1  0.90708600  0.16916300  0.62391300  1
  C  1424  1  0.92928800  0.19092200  0.60295700  1
  C  1425  1  0.91079800  0.18068500  0.58959600  1
  C  1426  1  0.91037500  0.18623700  0.57229400  1
  C  1427  1  0.89005500  0.17591200  0.55943800  1
  C  1431  1  0.81607300  0.11088600  0.57974900  1
  C  1435  1  0.90198500  0.16208500  0.64148100  1
  C  1443  1  0.33135700  0.36697900  0.44406000  1
  C  1444  1  0.33365400  0.37221500  0.42660100  1
  C  1446  1  0.37159000  0.34576300  0.41875500  1
  C  1447  1  0.37052300  0.33997300  0.43607300  1
  C  1448  1  0.34959900  0.35066600  0.44856400  1
  C  1450  1  0.39116100  0.33525400  0.40581100  1
  C  1451  1  0.42700100  0.31419400  0.37940300  1
  C  1453  1  0.40708300  0.33058200  0.37581200  1
  C  1454  1  0.42934800  0.30883000  0.39676800  1
  C  1455  1  0.41083400  0.31906100  0.41012900  1
  C  1456  1  0.41041700  0.31350800  0.42743000  1
  C  1457  1  0.39007700  0.32382700  0.44028700  1
  C  1461  1  0.31603500  0.38884500  0.41998300  1
  C  1465  1  0.40195400  0.33765400  0.35824400  1
  C  1473  1  0.22883300  0.08506700  0.22132500  1
  C  1474  1  0.21546100  0.09954700  0.23120400  1
  C  1475  1  0.17211600  0.10028700  0.23980800  1
  C  1476  1  0.14197800  0.08598100  0.23852900  1
  C  1477  1  0.15324100  0.07134100  0.22852000  1
  C  1478  1  0.19760200  0.07085600  0.22020600  1
  C  1481  1  0.27299600  0.08530600  0.21264600  1
  C  1482  1  0.28528400  0.09891400  0.20127900  1
  C  1483  1  0.32955700  0.09915500  0.19302200  1
  C  1484  1  0.36162200  0.08582700  0.19664000  1
  C  1485  1  0.35081500  0.07227200  0.20805300  1
  C  1486  1  0.30630000  0.07222300  0.21596200  1
  C  1493  1  0.38747400  0.05897100  0.21104500  1
  C  1496  1  0.34379000  0.11352500  0.18140800  1
  C  1499  1  0.15700800  0.11627500  0.24879500  1
  C  1502  1  0.11681700  0.05753300  0.22767600  1
  C  1505  1  0.72883200  0.41467000  0.21602200  1
  C  1506  1  0.71546000  0.40018900  0.20614400  1
  C  1507  1  0.67211600  0.39944900  0.19754000  1
  C  1508  1  0.64197900  0.41375600  0.19881800  1
  C  1509  1  0.65324500  0.42839700  0.20882600  1
  C  1510  1  0.69760400  0.42888100  0.21714100  1
  C  1513  1  0.77299500  0.41443000  0.22470200  1
  C  1514  1  0.78528200  0.40082100  0.23607000  1
  C  1515  1  0.82955300  0.40058100  0.24432800  1
  C  1516  1  0.86162200  0.41390800  0.24070900  1
  C  1517  1  0.85081400  0.42746200  0.22929600  1
  C  1518  1  0.80630200  0.42751300  0.22138500  1
  C  1525  1  0.88747600  0.44076300  0.22630300  1
  C  1528  1  0.84378200  0.38621200  0.25594300  1
  C  1531  1  0.65700900  0.38346300  0.18855200  1
  C  1534  1  0.61682100  0.44220600  0.20966900  1
  C  1537  1  0.47892700  0.24720800  0.05360890  1
  C  1538  1  0.46558300  0.23733100  0.06809490  1
  C  1539  1  0.42221800  0.22874200  0.06885790  1
  C  1540  1  0.39203200  0.23002900  0.05456590  1
  C  1541  1  0.40326600  0.24003400  0.03991990  1
  C  1542  1  0.44764300  0.24833600  0.03941390  1
  C  1545  1  0.52308600  0.25589300  0.05383890  1
  C  1546  1  0.53538700  0.26725100  0.06745490  1
  C  1547  1  0.57965200  0.27551300  0.06769590  1
  C  1548  1  0.61170200  0.27191000  0.05435790  1
  C  1549  1  0.60089200  0.26050800  0.04079390  1
  C  1550  1  0.55637900  0.25259400  0.04074590  1
  C  1557  1  0.63756100  0.25752500  0.02748890  1
  C  1560  1  0.59390500  0.28710400  0.08208290  1
  C  1563  1  0.40711800  0.21977900  0.08485990  1
  C  1566  1  0.36678300  0.24088800  0.02613290  1
  C  1569  1  0.97893300  0.25252700  0.38373300  1
  C  1570  1  0.96558900  0.26240500  0.36924700  1
  C  1571  1  0.92222400  0.27099400  0.36848400  1
  C  1572  1  0.89204200  0.26970800  0.38277600  1
  C  1573  1  0.90327200  0.25970300  0.39742200  1
  C  1574  1  0.94764900  0.25140000  0.39792800  1
  C  1577  1  0.02309000  0.24384100  0.38350300  1
  C  1578  1  0.03538500  0.23248200  0.36988700  1
  C  1579  1  0.07964600  0.22421700  0.36964600  1
  C  1580  1  0.11169900  0.22781800  0.38298400  1
  C  1581  1  0.10089400  0.23922100  0.39654700  1
  C  1582  1  0.05638300  0.24713800  0.39659600  1
  C  1589  1  0.13756300  0.24220400  0.40985300  1
  C  1592  1  0.09389100  0.21262300  0.35526100  1
  C  1595  1  0.90712800  0.27995800  0.35248200  1
  C  1598  1  0.86678500  0.25884900  0.41120900  1
  C  1601  1  0.76731300  0.91513900  0.21530100  1
  C  1602  1  0.78258500  0.90026200  0.20640800  1
  C  1603  1  0.82605800  0.89964900  0.19784100  1
  C  1604  1  0.85436200  0.91451600  0.19799400  1
  C  1605  1  0.84024900  0.92975200  0.20645800  1
  C  1606  1  0.79627500  0.93001500  0.21498400  1
  C  1609  1  0.72364000  0.91475300  0.22435200  1
  C  1610  1  0.71303600  0.90150500  0.23637600  1
  C  1611  1  0.66960800  0.90131700  0.24523000  1
  C  1612  1  0.63679400  0.91441500  0.24168600  1
  C  1613  1  0.64567700  0.92750100  0.22953400  1
  C  1614  1  0.68923800  0.92743500  0.22094300  1
  C  1621  1  0.60827000  0.94054300  0.22665200  1
  C  1624  1  0.65649900  0.88706100  0.25716400  1
  C  1627  1  0.84249800  0.88346000  0.18956700  1
  C  1630  1  0.87143200  0.94517400  0.20605000  1
  C  1633  1  0.26731300  0.58459900  0.22203100  1
  C  1634  1  0.28258700  0.59947500  0.23092500  1
  C  1635  1  0.32606100  0.60008700  0.23949100  1
  C  1636  1  0.35436300  0.58522000  0.23933900  1
  C  1637  1  0.34024800  0.56998300  0.23087600  1
  C  1638  1  0.29627600  0.56972200  0.22235000  1
  C  1641  1  0.22364000  0.58498500  0.21298200  1
  C  1642  1  0.21303400  0.59823300  0.20095800  1
  C  1643  1  0.16960200  0.59842300  0.19210900  1
  C  1644  1  0.13678900  0.58532600  0.19565200  1
  C  1645  1  0.14567500  0.57223900  0.20780300  1
  C  1646  1  0.18923900  0.57230200  0.21639200  1
  C  1653  1  0.10826600  0.55919600  0.21068500  1
  C  1656  1  0.15649000  0.61268000  0.18017600  1
  C  1659  1  0.34250300  0.61627600  0.24776700  1
  C  1662  1  0.37142900  0.55456100  0.23128500  1
  C  1665  1  0.52101900  0.75248000  0.38327200  1
  C  1666  1  0.53450200  0.76239300  0.36882500  1
  C  1667  1  0.57789200  0.77097200  0.36813800  1
  C  1668  1  0.60791300  0.76966600  0.38247300  1
  C  1669  1  0.59651800  0.75964300  0.39708900  1
  C  1670  1  0.55215600  0.75132900  0.39751100  1
  C  1673  1  0.47690100  0.74376500  0.38296300  1
  C  1674  1  0.46478600  0.73241700  0.36931800  1
  C  1675  1  0.42062300  0.72408200  0.36903500  1
  C  1676  1  0.38847100  0.72760800  0.38236200  1
  C  1677  1  0.39908500  0.73900500  0.39595400  1
  C  1678  1  0.44350700  0.74698900  0.39604000  1
  C  1685  1  0.36234000  0.74190900  0.40925000  1
  C  1688  1  0.40657200  0.71249400  0.35461300  1
  C  1691  1  0.59319800  0.77996000  0.35217700  1
  C  1694  1  0.63286200  0.75878100  0.41092800  1
  C  1697  1  0.02101400  0.74726000  0.05406490  1
  C  1698  1  0.03449500  0.73734800  0.06851090  1
  C  1699  1  0.07788400  0.72876800  0.06919890  1
  C  1700  1  0.10790600  0.73007300  0.05486190  1
  C  1701  1  0.09651400  0.74009500  0.04024690  1
  C  1702  1  0.05215000  0.74841000  0.03982590  1
  C  1705  1  0.97689700  0.75597600  0.05437290  1
  C  1706  1  0.96478800  0.76732600  0.06801890  1
  C  1707  1  0.92062500  0.77566500  0.06830090  1
  C  1708  1  0.88847300  0.77213800  0.05497290  1
  C  1709  1  0.89908100  0.76074000  0.04138290  1
  C  1710  1  0.94349900  0.75275500  0.04129690  1
  C  1717  1  0.86233500  0.75783800  0.02808590  1
  C  1720  1  0.90658200  0.78725500  0.08272090  1
  C  1723  1  0.09319200  0.71978000  0.08515990  1
  C  1726  1  0.13285600  0.74095800  0.02640890  1
  C  1729  1  0.72880400  0.58518600  0.72129500  1
  C  1730  1  0.71533800  0.59962900  0.73122000  1
  C  1731  1  0.67194500  0.60032300  0.73979800  1
  C  1732  1  0.64190600  0.58599300  0.73848300  1
  C  1733  1  0.65327600  0.57137800  0.72845400  1
  C  1734  1  0.69763900  0.57095500  0.72013700  1
  C  1737  1  0.77291400  0.58549200  0.71256900  1
  C  1738  1  0.78504100  0.59914800  0.70123300  1
  C  1739  1  0.82918200  0.59942700  0.69288000  1
  C  1740  1  0.86130000  0.58607800  0.69637400  1
  C  1741  1  0.85068500  0.57247300  0.70775500  1
  C  1742  1  0.80628400  0.57239600  0.71575800  1
  C  1749  1  0.88741000  0.55915700  0.71062800  1
  C  1752  1  0.84325400  0.61386400  0.68131000  1
  C  1755  1  0.65662800  0.61628600  0.74878400  1
  C  1758  1  0.61690500  0.55755000  0.72758700  1
  C  1761  1  0.22880000  0.91455100  0.71605600  1
  C  1762  1  0.21533500  0.90010700  0.70613100  1
  C  1763  1  0.17194200  0.89941500  0.69755300  1
  C  1764  1  0.14190500  0.91374500  0.69886700  1
  C  1765  1  0.15327700  0.92835900  0.70889600  1
  C  1766  1  0.19763800  0.92878300  0.71721300  1
  C  1769  1  0.27291200  0.91424400  0.72478200  1
  C  1770  1  0.28503500  0.90058800  0.73612000  1
  C  1771  1  0.32917700  0.90031000  0.74447300  1
  C  1772  1  0.36129700  0.91365900  0.74097800  1
  C  1773  1  0.35068200  0.92726200  0.72959400  1
  C  1774  1  0.30628400  0.92733900  0.72159100  1
  C  1781  1  0.38741100  0.94057600  0.72671900  1
  C  1784  1  0.34324600  0.88587300  0.75604200  1
  C  1787  1  0.15662300  0.88345100  0.68856700  1
  C  1790  1  0.11690600  0.94218800  0.70976200  1
  C  1793  1  0.98245300  0.74648600  0.55331800  1
  C  1794  1  0.96719900  0.73757300  0.56818700  1
  C  1795  1  0.92373200  0.72900100  0.56880300  1
  C  1796  1  0.89541800  0.72916300  0.55393800  1
  C  1797  1  0.90950300  0.73764100  0.53870600  1
  C  1798  1  0.95346300  0.74617700  0.53844600  1
  C  1801  1  0.02612200  0.75554500  0.55370400  1
  C  1802  1  0.03675100  0.76754600  0.56697100  1
  C  1803  1  0.08017300  0.77640500  0.56716700  1
  C  1804  1  0.11294100  0.77290100  0.55404100  1
  C  1805  1  0.10404100  0.76077700  0.54093000  1
  C  1806  1  0.06049500  0.75217300  0.54099800  1
  C  1813  1  0.14142700  0.75793400  0.52786500  1
  C  1816  1  0.09332600  0.78830200  0.58145100  1
  C  1819  1  0.90727800  0.72072300  0.58499100  1
  C  1822  1  0.87831300  0.73722500  0.52328400  1
  C  1825  1  0.48246100  0.75324700  0.88402100  1
  C  1826  1  0.46721400  0.76215800  0.86914900  1
  C  1827  1  0.42374400  0.77073000  0.86853400  1
  C  1828  1  0.39542900  0.77057100  0.88339700  1
  C  1829  1  0.40951100  0.76209500  0.89863100  1
  C  1830  1  0.45346800  0.75355700  0.89889200  1
  C  1833  1  0.52612700  0.74418600  0.88363800  1
  C  1834  1  0.53675500  0.73218100  0.87037200  1
  C  1835  1  0.58017000  0.72331700  0.87018300  1
  C  1836  1  0.61293700  0.72682300  0.88330800  1
  C  1837  1  0.60404000  0.73895200  0.89641600  1
  C  1838  1  0.56050000  0.74755800  0.89634300  1
  C  1845  1  0.64142700  0.74179800  0.90948100  1
  C  1848  1  0.59332100  0.71141400  0.85590300  1
  C  1851  1  0.40729700  0.77900900  0.85234400  1
  C  1854  1  0.37832100  0.76251200  0.91405300  1
  C  1857  1  0.26737500  0.41502700  0.71534100  1
  C  1858  1  0.28276400  0.40019700  0.70638900  1
  C  1859  1  0.32626300  0.39965500  0.69783100  1
  C  1860  1  0.35441900  0.41456000  0.69801600  1
  C  1861  1  0.34017200  0.42976000  0.70651200  1
  C  1862  1  0.29623000  0.42993700  0.71506200  1
  C  1865  1  0.22375200  0.41456500  0.72443400  1
  C  1866  1  0.21330200  0.40125500  0.73641200  1
  C  1867  1  0.16998900  0.40101200  0.74534400  1
  C  1868  1  0.13713000  0.41413200  0.74192800  1
  C  1869  1  0.14582900  0.42728500  0.72982500  1
  C  1870  1  0.18928100  0.42725900  0.72115400  1
  C  1877  1  0.10835900  0.44034200  0.72706700  1
  C  1880  1  0.15703400  0.38668000  0.75722000  1
  C  1883  1  0.34294300  0.38350400  0.68954200  1
  C  1886  1  0.37119100  0.44522900  0.70610000  1
  C  1889  1  0.76737600  0.08470900  0.72198900  1
  C  1890  1  0.78277000  0.09953700  0.73094300  1
  C  1891  1  0.82627200  0.10007700  0.73950000  1
  C  1892  1  0.85441800  0.08517200  0.73931400  1
  C  1893  1  0.84016800  0.06997300  0.73081700  1
  C  1894  1  0.79622600  0.06979700  0.72226700  1
  C  1897  1  0.72375200  0.08517400  0.71289700  1
  C  1898  1  0.71330200  0.09848700  0.70092200  1
  C  1899  1  0.66998600  0.09873400  0.69199300  1
  C  1900  1  0.63712300  0.08561500  0.69540900  1
  C  1901  1  0.64582100  0.07246000  0.70750800  1
  C  1902  1  0.68927700  0.07248100  0.71617700  1
  C  1909  1  0.60834700  0.05940300  0.71026500  1
  C  1912  1  0.65703400  0.11306900  0.68012000  1
  C  1915  1  0.84295600  0.11622700  0.74779100  1
  C  1918  1  0.87118300  0.05450200  0.73122800  1
  C  1921  1  0.01744300  0.25319900  0.88355400  1
  C  1922  1  0.03287200  0.26215300  0.86873100  1
  C  1923  1  0.07636400  0.27071600  0.86820900  1
  C  1924  1  0.10447700  0.27052800  0.88312300  1
  C  1925  1  0.09018800  0.26203000  0.89831700  1
  C  1926  1  0.04624500  0.25348000  0.89847600  1
  C  1929  1  0.97380400  0.24412000  0.88308100  1
  C  1930  1  0.96335700  0.23213600  0.86977600  1
  C  1931  1  0.92002000  0.22321900  0.86952800  1
  C  1932  1  0.88714400  0.22665500  0.88263700  1
  C  1933  1  0.89585500  0.23876200  0.89578400  1
  C  1934  1  0.93932200  0.24742000  0.89576300  1
  C  1941  1  0.85839200  0.24153200  0.90883700  1
  C  1944  1  0.90707500  0.21133000  0.85520900  1
  C  1947  1  0.09306100  0.27902500  0.85207000  1
  C  1950  1  0.12115700  0.26243500  0.91379900  1
  C  1953  1  0.51744300  0.24654600  0.55378300  1
  C  1954  1  0.53287200  0.23759500  0.56860700  1
  C  1955  1  0.57636700  0.22903300  0.56912800  1
  C  1956  1  0.60447800  0.22922000  0.55421400  1
  C  1957  1  0.59019000  0.23771800  0.53902100  1
  C  1958  1  0.54624400  0.24626600  0.53886000  1
  C  1961  1  0.47380500  0.25562600  0.55425500  1
  C  1962  1  0.46335500  0.26761200  0.56755700  1
  C  1963  1  0.42002500  0.27653100  0.56780100  1
  C  1964  1  0.38714800  0.27309300  0.55469300  1
  C  1965  1  0.39585600  0.26098300  0.54155000  1
  C  1966  1  0.43931900  0.25232300  0.54157400  1
  C  1973  1  0.35839700  0.25821000  0.52849600  1
  C  1976  1  0.40708300  0.28842700  0.58211700  1
  C  1979  1  0.59306200  0.22072300  0.58526700  1
  C  1982  1  0.62116300  0.23731400  0.52353900  1
  C  1985  1  0.08767800  0.03058200  0.21553700  1
  C  1986  1  0.09941100  0.01377100  0.22117700  1
  C  1988  1  0.01936500  0.00463400  0.21846600  1
  C  1989  1  0.00582900  0.02121500  0.21265700  1
  C  1990  1  0.04055900  0.03401200  0.21111900  1
  C  1992  1  0.98554900  0.99149100  0.22013100  1
  C  1993  1  0.91936600  0.96473400  0.22311000  1
  C  1995  1  0.96750700  0.96205700  0.22693200  1
  C  1996  1  0.90524900  0.98140200  0.21800300  1
  C  1997  1  0.93794300  0.99488900  0.21622800  1
  C  1998  1  0.92472600  0.01144500  0.21054200  1
  C  1999  1  0.95845900  0.02448700  0.20868300  1
  C  2003  1  0.14695700  0.00828500  0.22629500  1
  C  2007  1  0.98707100  0.94527800  0.23230900  1
  C  2015  1  0.58768500  0.46915700  0.22180700  1
  C  2016  1  0.59941500  0.48596700  0.21616300  1
  C  2018  1  0.51936700  0.49510300  0.21887200  1
  C  2019  1  0.50583100  0.47852300  0.22468400  1
  C  2020  1  0.54056500  0.46572700  0.22622600  1
  C  2022  1  0.48555300  0.50824500  0.21720500  1
  C  2023  1  0.41937000  0.53500200  0.21422800  1
  C  2025  1  0.46750800  0.53767900  0.21040300  1
  C  2026  1  0.40525000  0.51833200  0.21932800  1
  C  2027  1  0.43794400  0.50484700  0.22110800  1
  C  2028  1  0.42473000  0.48829300  0.22679900  1
  C  2029  1  0.45846400  0.47525000  0.22865500  1
  C  2033  1  0.64696100  0.49145400  0.21105000  1
  C  2037  1  0.48706800  0.55445600  0.20501900  1
  C  2045  1  0.33759500  0.25300000  0.99917500  1
  C  2046  1  0.34928800  0.24733600  0.98236700  1
  C  2048  1  0.26923300  0.25005700  0.97324300  1
  C  2049  1  0.25573300  0.25588600  0.98982100  1
  C  2050  1  0.29048800  0.25743100  0.00260892  1
  C  2052  1  0.23539800  0.24838900  0.96010800  1
  C  2053  1  0.16917500  0.24540500  0.93336000  1
  C  2055  1  0.21730400  0.24155800  0.93068400  1
  C  2056  1  0.15509500  0.25053500  0.95002600  1
  C  2057  1  0.18780500  0.25231000  0.96350800  1
  C  2058  1  0.17462400  0.25801900  0.98006000  1
  C  2059  1  0.20837600  0.25987400  0.99309800  1
  C  2063  1  0.39681500  0.24220000  0.97687700  1
  C  2067  1  0.23684700  0.23615200  0.91391100  1
  C  2075  1  0.83759700  0.24673900  0.43816700  1
  C  2076  1  0.84928900  0.25240100  0.45497600  1
  C  2078  1  0.76923400  0.24968400  0.46409700  1
  C  2079  1  0.75573300  0.24385200  0.44752000  1
  C  2080  1  0.79049100  0.24230500  0.43473300  1
  C  2082  1  0.73539500  0.25135500  0.47723300  1
  C  2083  1  0.66916700  0.25435000  0.50397600  1
  C  2085  1  0.71730100  0.25818800  0.50665500  1
  C  2086  1  0.65508500  0.24922100  0.48731000  1
  C  2087  1  0.68780100  0.24743800  0.47383100  1
  C  2088  1  0.67462100  0.24172900  0.45727900  1
  C  2089  1  0.70837600  0.23986800  0.44424300  1
  C  2093  1  0.89681700  0.25753800  0.46046700  1
  C  2097  1  0.73684000  0.26358800  0.52343100  1
  C  2105  1  0.90912900  0.46886200  0.21523500  1
  C  2106  1  0.90140100  0.48425900  0.22460800  1
  C  2108  1  0.97936000  0.49403400  0.21836500  1
  C  2109  1  0.98845600  0.47906200  0.20845600  1
  C  2110  1  0.95289700  0.46655700  0.20704600  1
  C  2112  1  0.01443500  0.50666200  0.22038400  1
  C  2113  1  0.08257500  0.53254700  0.22407500  1
  C  2115  1  0.03829800  0.53381500  0.23232500  1
  C  2116  1  0.09237200  0.51763000  0.21435000  1
  C  2117  1  0.05859900  0.50454600  0.21231400  1
  C  2118  1  0.06729200  0.48966700  0.20238800  1
  C  2119  1  0.03255200  0.47698100  0.20053800  1
  C  2123  1  0.85758400  0.48843200  0.23383400  1
  C  2127  1  0.02465500  0.54826700  0.24365600  1
  C  2135  1  0.40912300  0.03086900  0.22210900  1
  C  2136  1  0.40140200  0.01547600  0.21272900  1
  C  2138  1  0.47936100  0.00570100  0.21897200  1
  C  2139  1  0.48845400  0.02067000  0.22888600  1
  C  2140  1  0.45288700  0.03317300  0.23030100  1
  C  2142  1  0.51443800  0.99307400  0.21694900  1
  C  2143  1  0.58257700  0.96719000  0.21325800  1
  C  2145  1  0.53830200  0.96592400  0.20500600  1
  C  2146  1  0.59238300  0.98211100  0.22297500  1
  C  2147  1  0.55860400  0.99519300  0.22501700  1
  C  2148  1  0.56729500  0.01006900  0.23494600  1
  C  2149  1  0.53254700  0.02275100  0.23680300  1
  C  2153  1  0.35757500  0.01130100  0.20350900  1
  C  2157  1  0.52465000  0.95146600  0.19368100  1
  C  2165  1  0.65926900  0.24642400  0.99939400  1
  C  2166  1  0.65152400  0.25574500  0.98396500  1
  C  2168  1  0.72939500  0.24939700  0.97415300  1
  C  2169  1  0.73852300  0.23955400  0.98916700  1
  C  2170  1  0.70301900  0.23822300  0.00170392  1
  C  2172  1  0.76439900  0.25132000  0.96148100  1
  C  2173  1  0.83242900  0.25484100  0.93552100  1
  C  2175  1  0.78818900  0.26311800  0.93425600  1
  C  2176  1  0.84224600  0.24517800  0.95047800  1
  C  2177  1  0.80853400  0.24322800  0.96359900  1
  C  2178  1  0.81726600  0.23337700  0.97852500  1
  C  2179  1  0.78259200  0.23161400  0.99124800  1
  C  2183  1  0.60773500  0.26498200  0.97978200  1
  C  2187  1  0.77453800  0.27441200  0.91977400  1
  C  2195  1  0.15928200  0.25330100  0.43794800  1
  C  2196  1  0.15152400  0.24398900  0.45338000  1
  C  2198  1  0.22939300  0.25033700  0.46319300  1
  C  2199  1  0.23852600  0.26017700  0.44817800  1
  C  2200  1  0.20302300  0.26150800  0.43564000  1
  C  2202  1  0.26439900  0.24841200  0.47586400  1
  C  2203  1  0.33244100  0.24487900  0.50181900  1
  C  2205  1  0.28818400  0.23661400  0.50309200  1
  C  2206  1  0.34225700  0.25454400  0.48686200  1
  C  2207  1  0.30853800  0.25650000  0.47374400  1
  C  2208  1  0.31727000  0.26635200  0.45881800  1
  C  2209  1  0.28259500  0.26811500  0.44609500  1
  C  2213  1  0.10773100  0.23475300  0.45756300  1
  C  2217  1  0.27452500  0.22532600  0.51757600  1
  C  2225  1  0.66189300  0.74665900  0.43789700  1
  C  2226  1  0.65018000  0.75233000  0.45470100  1
  C  2228  1  0.73022100  0.74960200  0.46384300  1
  C  2229  1  0.74373600  0.74376400  0.44726900  1
  C  2230  1  0.70899900  0.74221600  0.43447600  1
  C  2232  1  0.76404900  0.75127100  0.47698100  1
  C  2233  1  0.83026700  0.75426200  0.50373100  1
  C  2235  1  0.78213300  0.75810300  0.50640700  1
  C  2236  1  0.84435200  0.74913300  0.48706600  1
  C  2237  1  0.81164400  0.74735100  0.47358600  1
  C  2238  1  0.82484100  0.74164100  0.45703500  1
  C  2239  1  0.79109300  0.73977400  0.44399900  1
  C  2243  1  0.60264800  0.75748000  0.46017400  1
  C  2247  1  0.76259000  0.76350600  0.52318000  1
  C  2255  1  0.16188700  0.75307800  0.99943900  1
  C  2256  1  0.15017700  0.74740300  0.98263600  1
  C  2258  1  0.23021700  0.75013600  0.97349400  1
  C  2259  1  0.24373200  0.75597500  0.99006800  1
  C  2260  1  0.20899200  0.75752400  0.00285992  1
  C  2262  1  0.26404500  0.74846500  0.96035500  1
  C  2263  1  0.33026300  0.74548000  0.93360400  1
  C  2265  1  0.28213200  0.74163600  0.93093000  1
  C  2266  1  0.34435100  0.75060300  0.95027200  1
  C  2267  1  0.31164100  0.75238800  0.96375100  1
  C  2268  1  0.32483300  0.75810300  0.98030000  1
  C  2269  1  0.29108900  0.75996500  0.99333800  1
  C  2273  1  0.10264500  0.74225900  0.97716000  1
  C  2277  1  0.26259200  0.73622500  0.91415800  1
  C  2285  1  0.34041000  0.75296700  0.43735000  1
  C  2286  1  0.34816800  0.74366200  0.45278700  1
  C  2288  1  0.27026100  0.74997900  0.46258100  1
  C  2289  1  0.26112400  0.75981100  0.44756100  1
  C  2290  1  0.29663600  0.76114700  0.43502800  1
  C  2292  1  0.23525100  0.74805300  0.47525100  1
  C  2293  1  0.16722200  0.74454600  0.50121200  1
  C  2295  1  0.21146700  0.73627200  0.50248500  1
  C  2296  1  0.15740100  0.75419600  0.48624800  1
  C  2297  1  0.19110900  0.75613900  0.47312500  1
  C  2298  1  0.18237400  0.76598200  0.45819500  1
  C  2299  1  0.21705000  0.76774300  0.44547200  1
  C  2303  1  0.39200100  0.73446100  0.45699000  1
  C  2307  1  0.22512900  0.72499400  0.51697800  1
  C  2315  1  0.84039900  0.74678000  0.99998700  1
  C  2316  1  0.84816900  0.75607800  0.98454800  1
  C  2318  1  0.77026600  0.74976100  0.97475200  1
  C  2319  1  0.76112400  0.73993100  0.98977300  1
  C  2320  1  0.79663100  0.73859600  0.00230792  1
  C  2322  1  0.73525600  0.75168800  0.96208200  1
  C  2323  1  0.66721100  0.75520800  0.93612700  1
  C  2325  1  0.71147600  0.76347000  0.93484600  1
  C  2326  1  0.65739100  0.74555600  0.95109000  1
  C  2327  1  0.69110700  0.74360800  0.96420900  1
  C  2328  1  0.68237100  0.73376400  0.97913900  1
  C  2329  1  0.71704500  0.73200200  0.99186200  1
  C  2333  1  0.89200300  0.76527800  0.98034300  1
  C  2337  1  0.72514500  0.77474100  0.92035000  1
  C  2345  1  0.58784500  0.53056500  0.71549500  1
  C  2346  1  0.59952400  0.51376400  0.72118100  1
  C  2348  1  0.51947200  0.50463200  0.71844100  1
  C  2349  1  0.50598900  0.52120300  0.71258700  1
  C  2350  1  0.54074700  0.53399000  0.71103900  1
  C  2352  1  0.48562300  0.49149900  0.72011400  1
  C  2353  1  0.41935300  0.46476400  0.72311500  1
  C  2355  1  0.46748000  0.46208300  0.72696700  1
  C  2356  1  0.40530600  0.48142900  0.71797100  1
  C  2357  1  0.43803900  0.49490100  0.71618200  1
  C  2358  1  0.42487700  0.51145000  0.71045600  1
  C  2359  1  0.45864200  0.52447900  0.70858400  1
  C  2363  1  0.64703800  0.50828400  0.72634300  1
  C  2367  1  0.48699800  0.44531000  0.73238600  1
  C  2375  1  0.08784500  0.96917200  0.72185100  1
  C  2376  1  0.09952200  0.98597400  0.71616300  1
  C  2378  1  0.01947100  0.99510400  0.71889900  1
  C  2379  1  0.00598800  0.97853300  0.72475400  1
  C  2380  1  0.04074800  0.96574700  0.72630700  1
  C  2382  1  0.98561500  0.00823500  0.71722000  1
  C  2383  1  0.91934100  0.03496700  0.71421100  1
  C  2385  1  0.96747200  0.03765000  0.71036600  1
  C  2386  1  0.90529100  0.01830200  0.71935200  1
  C  2387  1  0.93802700  0.00483200  0.72115000  1
  C  2388  1  0.92486900  0.98828500  0.72688200  1
  C  2389  1  0.95863800  0.97525600  0.72875300  1
  C  2393  1  0.14704000  0.99145500  0.71100700  1
  C  2397  1  0.98698300  0.05442200  0.70494300  1
  C  2405  1  0.40939600  0.96867900  0.71563600  1
  C  2406  1  0.40159700  0.98415600  0.72487200  1
  C  2408  1  0.47940600  0.99399200  0.71845000  1
  C  2409  1  0.48859700  0.97892600  0.70869600  1
  C  2410  1  0.45315600  0.96635200  0.70744800  1
  C  2412  1  0.51434000  0.00670900  0.72027500  1
  C  2413  1  0.58226900  0.03273900  0.72361800  1
  C  2415  1  0.53803600  0.03402500  0.73189900  1
  C  2416  1  0.59211700  0.01773300  0.71403500  1
  C  2417  1  0.55846100  0.00457700  0.71217500  1
  C  2418  1  0.56724600  0.98959800  0.70241300  1
  C  2419  1  0.53264500  0.97683500  0.70074500  1
  C  2423  1  0.35777400  0.98837300  0.73407500  1
  C  2427  1  0.52434200  0.04856000  0.74311800  1
  C  2435  1  0.90939500  0.53105200  0.72170300  1
  C  2436  1  0.90159000  0.51557500  0.71247000  1
  C  2438  1  0.97940200  0.50573800  0.71889000  1
  C  2439  1  0.98858900  0.52080400  0.72864700  1
  C  2440  1  0.95314500  0.53337500  0.72989900  1
  C  2442  1  0.01434100  0.49302400  0.71706000  1
  C  2443  1  0.08228800  0.46700400  0.71369800  1
  C  2445  1  0.03804000  0.46571100  0.70542800  1
  C  2446  1  0.09213200  0.48200600  0.72328600  1
  C  2447  1  0.05846700  0.49515700  0.72515700  1
  C  2448  1  0.06724700  0.51013300  0.73492400  1
  C  2449  1  0.03264100  0.52289400  0.73659600  1
  C  2453  1  0.85777000  0.51136000  0.70326600  1
  C  2457  1  0.02434600  0.45117700  0.69421200  1
  C  2465  1  0.42097300  0.19328100  0.10131000  1
  C  2466  1  0.41849600  0.17576100  0.09629990  1
  C  2468  1  0.38196300  0.16821400  0.12310100  1
  C  2469  1  0.38337300  0.18558700  0.12870400  1
  C  2470  1  0.40380200  0.19794500  0.11774100  1
  C  2472  1  0.36257100  0.15541900  0.13382900  1
  C  2473  1  0.32629300  0.12933600  0.15517900  1
  C  2475  1  0.34598900  0.12552400  0.13880200  1
  C  2476  1  0.32451100  0.14675400  0.16039800  1
  C  2477  1  0.34328600  0.15995100  0.15002700  1
  C  2478  1  0.34410100  0.17730500  0.15540400  1
  C  2479  1  0.36440700  0.19000700  0.14488900  1
  C  2483  1  0.43517000  0.16896500  0.07960990  1
  C  2487  1  0.35060200  0.10788200  0.13186500  1
  C  2495  1  0.92098900  0.30645500  0.33603000  1
  C  2496  1  0.91852300  0.32397500  0.34104000  1
  C  2498  1  0.88197300  0.33152300  0.31424200  1
  C  2499  1  0.88337200  0.31414900  0.30864100  1
  C  2500  1  0.90381500  0.30179100  0.31960000  1
  C  2502  1  0.86257000  0.34431700  0.30351700  1
  C  2503  1  0.82627500  0.37040000  0.28217200  1
  C  2505  1  0.84599700  0.37421400  0.29854400  1
  C  2506  1  0.82447000  0.35298300  0.27695600  1
  C  2507  1  0.84326400  0.33978600  0.28732300  1
  C  2508  1  0.84409400  0.32243300  0.28194200  1
  C  2509  1  0.86438200  0.30972900  0.29245900  1
  C  2513  1  0.93521100  0.33077200  0.35772800  1
  C  2517  1  0.85060800  0.39185600  0.30548200  1
  C  2525  1  0.67090900  0.36705500  0.16203100  1
  C  2526  1  0.66845000  0.37209700  0.14451900  1
  C  2528  1  0.63195600  0.34530400  0.13691800  1
  C  2529  1  0.63334500  0.33967000  0.15428000  1
  C  2530  1  0.65375200  0.35061300  0.16666300  1
  C  2532  1  0.61259800  0.33459700  0.12410000  1
  C  2533  1  0.57639100  0.31328700  0.09796890  1
  C  2535  1  0.59603600  0.32968000  0.09419290  1
  C  2536  1  0.57461400  0.30803200  0.11537600  1
  C  2537  1  0.59333500  0.31838500  0.12859700  1
  C  2538  1  0.59415000  0.31297400  0.14594200  1
  C  2539  1  0.61438900  0.32347500  0.15866800  1
  C  2543  1  0.68511700  0.38880200  0.13775600  1
  C  2547  1  0.60062200  0.33666000  0.07656790  1
  C  2555  1  0.17091100  0.13268500  0.27531500  1
  C  2556  1  0.16847000  0.12764400  0.29282700  1
  C  2558  1  0.13194900  0.15443400  0.30042800  1
  C  2559  1  0.13332700  0.16006400  0.28306500  1
  C  2560  1  0.15374900  0.14912600  0.27068300  1
  C  2562  1  0.11257700  0.16513700  0.31324600  1
  C  2563  1  0.07634200  0.18644000  0.33937600  1
  C  2565  1  0.09603500  0.17005600  0.34315400  1
  C  2566  1  0.07454300  0.19169300  0.32196900  1
  C  2567  1  0.09328900  0.18134500  0.30874800  1
  C  2568  1  0.09408500  0.18675300  0.29140300  1
  C  2569  1  0.11434800  0.17625700  0.27867700  1
  C  2573  1  0.18515400  0.11094300  0.29959000  1
  C  2577  1  0.10065700  0.16308300  0.36078100  1
  C  2585  1  0.58006500  0.80667500  0.33600000  1
  C  2586  1  0.58268200  0.82413300  0.34121700  1
  C  2588  1  0.62001900  0.83191200  0.31463000  1
  C  2589  1  0.61849000  0.81460500  0.30882800  1
  C  2590  1  0.59760000  0.80216400  0.31957900  1
  C  2592  1  0.63975100  0.84479600  0.30409200  1
  C  2593  1  0.67613300  0.87107900  0.28300900  1
  C  2595  1  0.65633800  0.87473900  0.29940200  1
  C  2596  1  0.67806000  0.85370600  0.27765000  1
  C  2597  1  0.65922400  0.84041300  0.28788300  1
  C  2598  1  0.65834900  0.82311700  0.28232000  1
  C  2599  1  0.63773600  0.81033100  0.29264900  1
  C  2603  1  0.56566800  0.83077300  0.35792200  1
  C  2607  1  0.65155800  0.89232700  0.30645900  1
  C  2615  1  0.08005300  0.69306400  0.10133700  1
  C  2616  1  0.08266600  0.67560700  0.09611890  1
  C  2618  1  0.12000300  0.66782800  0.12270800  1
  C  2619  1  0.11847400  0.68513500  0.12850800  1
  C  2620  1  0.09757800  0.69757600  0.11775900  1
  C  2622  1  0.13973900  0.65494500  0.13324500  1
  C  2623  1  0.17610100  0.62866100  0.15432900  1
  C  2625  1  0.15632100  0.62500000  0.13793500  1
  C  2626  1  0.17806900  0.64603500  0.15968400  1
  C  2627  1  0.15921700  0.65932700  0.14945300  1
  C  2628  1  0.15831900  0.67662100  0.15501900  1
  C  2629  1  0.13772600  0.68940800  0.14468700  1
  C  2633  1  0.06565200  0.66896600  0.07941490  1
  C  2637  1  0.15156300  0.60741300  0.13087400  1
  C  2645  1  0.33013000  0.63299200  0.27426900  1
  C  2646  1  0.33227500  0.62790300  0.29177200  1
  C  2648  1  0.36950800  0.65452800  0.29946900  1
  C  2649  1  0.36857100  0.66017900  0.28210500  1
  C  2650  1  0.34806300  0.64932400  0.26966300  1
  C  2652  1  0.38878200  0.66517300  0.31235600  1
  C  2653  1  0.42454100  0.68640600  0.33863500  1
  C  2655  1  0.40469700  0.67002500  0.34232300  1
  C  2656  1  0.42677000  0.69168500  0.32124200  1
  C  2657  1  0.40831500  0.68136300  0.30794200  1
  C  2658  1  0.40796500  0.68679000  0.29060100  1
  C  2659  1  0.38789700  0.67633600  0.27779600  1
  C  2663  1  0.31494700  0.61127100  0.29849000  1
  C  2667  1  0.39970100  0.66302000  0.35992400  1
  C  2675  1  0.83012400  0.86674300  0.16306500  1
  C  2676  1  0.83226100  0.87183200  0.14556200  1
  C  2678  1  0.86951800  0.84521100  0.13786500  1
  C  2679  1  0.86858400  0.83956000  0.15522800  1
  C  2680  1  0.84806100  0.85041100  0.16767000  1
  C  2682  1  0.88880200  0.83456800  0.12497700  1
  C  2683  1  0.92458900  0.81334200  0.09869990  1
  C  2685  1  0.90470300  0.82971500  0.09500990  1
  C  2686  1  0.92683200  0.80806400  0.11609200  1
  C  2687  1  0.90835200  0.81838100  0.12939100  1
  C  2688  1  0.90801600  0.81295500  0.14673300  1
  C  2689  1  0.88792700  0.82340500  0.15953700  1
  C  2693  1  0.81492200  0.88846200  0.13884300  1
  C  2697  1  0.89968300  0.83671500  0.07740790  1
  C  2705  1  0.91958300  0.69421700  0.60172300  1
  C  2706  1  0.91741700  0.67670900  0.59664800  1
  C  2708  1  0.88026900  0.66902600  0.62329600  1
  C  2709  1  0.88122100  0.68639400  0.62893300  1
  C  2710  1  0.90168400  0.69883100  0.61805900  1
  C  2712  1  0.86104400  0.65614300  0.63396200  1
  C  2713  1  0.82532000  0.62987800  0.65522400  1
  C  2715  1  0.84514300  0.62617900  0.63884300  1
  C  2716  1  0.82313000  0.64727400  0.66049600  1
  C  2717  1  0.84156800  0.66056600  0.65015800  1
  C  2718  1  0.84191000  0.67791300  0.65556900  1
  C  2719  1  0.86195400  0.69071200  0.64509700  1
  C  2723  1  0.93470000  0.66997900  0.58001400  1
  C  2727  1  0.85011500  0.60857300  0.63184700  1
  C  2735  1  0.41960500  0.80551600  0.83561400  1
  C  2736  1  0.41744600  0.82302200  0.84069000  1
  C  2738  1  0.38028700  0.83070700  0.81404500  1
  C  2739  1  0.38123200  0.81334000  0.80840600  1
  C  2740  1  0.40170600  0.80090300  0.81927800  1
  C  2742  1  0.36104900  0.84359100  0.80338300  1
  C  2743  1  0.32530700  0.86985700  0.78212600  1
  C  2745  1  0.34514800  0.87355600  0.79850400  1
  C  2746  1  0.32309700  0.85246100  0.77685500  1
  C  2747  1  0.34155900  0.83916800  0.78718800  1
  C  2748  1  0.34192100  0.82182300  0.78177200  1
  C  2749  1  0.36195100  0.80902300  0.79224500  1
  C  2753  1  0.43473600  0.82975100  0.85732300  1
  C  2757  1  0.35010900  0.89116100  0.80550300  1
  C  2765  1  0.16968500  0.86726000  0.66184300  1
  C  2766  1  0.16703000  0.87246400  0.64438200  1
  C  2768  1  0.12982900  0.84584400  0.63661900  1
  C  2769  1  0.13138300  0.84005800  0.65393000  1
  C  2770  1  0.15222400  0.85083200  0.66636500  1
  C  2772  1  0.11015900  0.83528000  0.62374100  1
  C  2773  1  0.07387600  0.81415200  0.59746900  1
  C  2775  1  0.09353700  0.83056600  0.59380100  1
  C  2776  1  0.07200900  0.80880000  0.61484600  1
  C  2777  1  0.09078000  0.81905800  0.62813400  1
  C  2778  1  0.09169800  0.81350800  0.64543200  1
  C  2779  1  0.11221900  0.82386800  0.65821500  1
  C  2783  1  0.18396600  0.88917500  0.63772900  1
  C  2787  1  0.09821300  0.83762800  0.57621200  1
  C  2795  1  0.66969200  0.63247800  0.77550600  1
  C  2796  1  0.66705700  0.62727500  0.79296800  1
  C  2798  1  0.62982500  0.65388900  0.80073300  1
  C  2799  1  0.63136800  0.65967600  0.78342200  1
  C  2800  1  0.65222300  0.64890700  0.77098600  1
  C  2802  1  0.61014200  0.66444800  0.81361100  1
  C  2803  1  0.57382300  0.68556800  0.83988400  1
  C  2805  1  0.59354500  0.66916400  0.84355400  1
  C  2806  1  0.57193400  0.69091900  0.82250700  1
  C  2807  1  0.59073200  0.68066700  0.80922000  1
  C  2808  1  0.59163100  0.68621500  0.79192000  1
  C  2809  1  0.61217800  0.67586200  0.77913900  1
  C  2813  1  0.68401500  0.61056700  0.79962100  1
  C  2817  1  0.59825700  0.66210800  0.86114400  1
  C  2825  1  0.08146300  0.30573400  0.83559200  1
  C  2826  1  0.08374100  0.32318200  0.84086100  1
  C  2828  1  0.12166400  0.33108600  0.81442500  1
  C  2829  1  0.12061600  0.31378000  0.80859900  1
  C  2830  1  0.09972200  0.30126300  0.81927100  1
  C  2832  1  0.14121000  0.34405400  0.80394000  1
  C  2833  1  0.17702800  0.37051100  0.78293300  1
  C  2835  1  0.15709900  0.37406500  0.79932700  1
  C  2836  1  0.17936900  0.35315900  0.77753000  1
  C  2837  1  0.16087400  0.33977300  0.78773500  1
  C  2838  1  0.16049000  0.32248200  0.78215000  1
  C  2839  1  0.14016000  0.30960200  0.79244300  1
  C  2843  1  0.06611000  0.32976500  0.85750400  1
  C  2847  1  0.15195900  0.39161800  0.80643500  1
  C  2855  1  0.58146100  0.19401300  0.60174500  1
  C  2856  1  0.58373500  0.17656600  0.59647600  1
  C  2858  1  0.62165600  0.16866100  0.62291200  1
  C  2859  1  0.62061000  0.18596800  0.62873700  1
  C  2860  1  0.59971300  0.19848300  0.61806600  1
  C  2862  1  0.64120600  0.15569400  0.63339700  1
  C  2863  1  0.67700400  0.12923500  0.65440500  1
  C  2865  1  0.65709000  0.12568100  0.63800900  1
  C  2866  1  0.67938300  0.14658900  0.65980500  1
  C  2867  1  0.66087500  0.15997300  0.64960200  1
  C  2868  1  0.66046600  0.17726300  0.65519000  1
  C  2869  1  0.64015300  0.19014400  0.64489400  1
  C  2873  1  0.56610900  0.16998100  0.57983200  1
  C  2877  1  0.65197100  0.10812900  0.63089800  1
  C  2885  1  0.83137300  0.13275200  0.77447000  1
  C  2886  1  0.83367800  0.12751800  0.79192900  1
  C  2888  1  0.87158900  0.15397500  0.79977300  1
  C  2889  1  0.87051800  0.15976500  0.78245400  1
  C  2890  1  0.84961100  0.14906600  0.76996400  1
  C  2892  1  0.89114600  0.16448800  0.81271600  1
  C  2893  1  0.92695100  0.18555900  0.83912300  1
  C  2895  1  0.90708600  0.16916300  0.84271400  1
  C  2896  1  0.92928800  0.19092200  0.82175800  1
  C  2897  1  0.91079800  0.18068500  0.80839700  1
  C  2898  1  0.91037500  0.18623700  0.79109500  1
  C  2899  1  0.89005500  0.17591200  0.77823900  1
  C  2903  1  0.81607300  0.11088600  0.79855000  1
  C  2907  1  0.90198500  0.16208500  0.86028200  1
  C  2915  1  0.33135700  0.36697900  0.66286100  1
  C  2916  1  0.33365400  0.37221500  0.64540200  1
  C  2918  1  0.37159000  0.34576300  0.63755600  1
  C  2919  1  0.37052300  0.33997300  0.65487400  1
  C  2920  1  0.34959900  0.35066600  0.66736500  1
  C  2922  1  0.39116100  0.33525400  0.62461200  1
  C  2923  1  0.42700100  0.31419400  0.59820400  1
  C  2925  1  0.40708300  0.33058200  0.59461300  1
  C  2926  1  0.42934800  0.30883000  0.61556900  1
  C  2927  1  0.41083400  0.31906100  0.62893000  1
  C  2928  1  0.41041700  0.31350800  0.64623100  1
  C  2929  1  0.39007700  0.32382700  0.65908800  1
  C  2933  1  0.31603500  0.38884500  0.63878400  1
  C  2937  1  0.40195400  0.33765400  0.57704500  1
  N  515  1  0.06502900  0.00172700  0.00356600  1
  N  522  1  0.99787100  0.97542700  0.00648000  1
  N  539  1  0.88464600  0.95156800  0.00466100  1
  N  541  1  0.12214500  0.04371200  0.99577200  1
  N  545  1  0.56503100  0.49801000  0.99617100  1
  N  552  1  0.49787500  0.52430900  0.99325200  1
  N  569  1  0.38465000  0.54816800  0.99507200  1
  N  571  1  0.62214900  0.45602600  0.00397000  1
  N  575  1  0.31488500  0.24614200  0.75153100  1
  N  582  1  0.24768800  0.24321500  0.72524700  1
  N  599  1  0.13443800  0.24503000  0.70139700  1
  N  601  1  0.37209400  0.25397100  0.79349300  1
  N  605  1  0.81488700  0.25359700  0.24820900  1
  N  612  1  0.74768600  0.25652700  0.27449100  1
  N  629  1  0.63442900  0.25472000  0.29833800  1
  N  631  1  0.87209600  0.24576700  0.20624800  1
  N  635  1  0.93666300  0.49594200  0.00700600  1
  N  642  1  0.00668900  0.52093800  0.01124600  1
  N  659  1  0.11699900  0.54572600  0.00511800  1
  N  661  1  0.87497900  0.45560000  0.99629300  1
  N  665  1  0.43666000  0.00379400  0.99272900  1
  N  672  1  0.50668800  0.97879900  0.98848600  1
  N  689  1  0.61699900  0.95401100  0.99461400  1
  N  691  1  0.37497300  0.04413200  0.00345000  1
  N  695  1  0.68673000  0.25686500  0.75344900  1
  N  702  1  0.75663500  0.26092100  0.72836400  1
  N  719  1  0.86693900  0.25472200  0.70356900  1
  N  721  1  0.62510200  0.24630800  0.79385200  1
  N  725  1  0.18672500  0.24287000  0.24629500  1
  N  732  1  0.25662700  0.23881500  0.27138100  1
  N  749  1  0.36694000  0.24500900  0.29617300  1
  N  751  1  0.12511100  0.25341900  0.20588800  1
  N  755  1  0.68456800  0.75352300  0.24794100  1
  N  762  1  0.75175100  0.75644500  0.27424000  1
  N  779  1  0.86500800  0.75463000  0.29809200  1
  N  781  1  0.62742900  0.74570100  0.20596100  1
  N  785  1  0.18456400  0.74621300  0.75179200  1
  N  792  1  0.25175200  0.74329000  0.72549500  1
  N  809  1  0.36500600  0.74510900  0.70164300  1
  N  811  1  0.12742200  0.75403700  0.79377200  1
  N  815  1  0.31295100  0.74253200  0.24569500  1
  N  822  1  0.24302300  0.73846300  0.27077300  1
  N  839  1  0.13275400  0.74471000  0.29557800  1
  N  841  1  0.37463000  0.75312300  0.20530700  1
  N  845  1  0.81295600  0.75720600  0.75403400  1
  N  852  1  0.74303300  0.76127500  0.72895600  1
  N  869  1  0.63275700  0.75503400  0.70415500  1
  N  871  1  0.87462200  0.74662300  0.79442800  1
  N  875  1  0.56511900  0.50172700  0.50357400  1
  N  882  1  0.49788600  0.47544200  0.50650200  1
  N  899  1  0.38458400  0.45161000  0.50469900  1
  N  901  1  0.62233500  0.54369200  0.49572700  1
  N  905  1  0.06511600  0.99800900  0.49616600  1
  N  912  1  0.99787800  0.02429300  0.49323000  1
  N  929  1  0.88457200  0.04812100  0.49502600  1
  N  931  1  0.12233600  0.95604700  0.50401800  1
  N  935  1  0.43674100  0.99590500  0.50711600  1
  N  942  1  0.50653400  0.02108000  0.51098900  1
  N  959  1  0.61681400  0.04588200  0.50467100  1
  N  961  1  0.37516600  0.95543700  0.49670000  1
  N  965  1  0.93673300  0.50382600  0.49262300  1
  N  972  1  0.00653400  0.47865400  0.48874200  1
  N  989  1  0.11682400  0.45385600  0.49505000  1
  N  991  1  0.87516100  0.54429400  0.50304000  1
  N  995  1  0.39949500  0.16416200  0.88856900  1
  N  1002  1  0.36288200  0.13862800  0.91022300  1
  N  1019  1  0.31032300  0.11667600  0.94826000  1
  N  1021  1  0.43979200  0.20576800  0.87116000  1
  N  1025  1  0.89951800  0.33557500  0.11117100  1
  N  1032  1  0.86288800  0.36110800  0.08952000  1
  N  1049  1  0.81031100  0.38306100  0.05148800  1
  N  1051  1  0.93980500  0.29396700  0.12857900  1
  N  1055  1  0.64947700  0.36104600  0.91409600  1
  N  1062  1  0.61290200  0.33943500  0.88851800  1
  N  1079  1  0.56041600  0.30143400  0.86648000  1
  N  1081  1  0.68970400  0.37838400  0.95574000  1
  N  1085  1  0.14948900  0.13869400  0.08564800  1
  N  1092  1  0.11290800  0.16030100  0.11122600  1
  N  1109  1  0.06038900  0.19829700  0.13326300  1
  N  1111  1  0.18970900  0.12135700  0.04400300  1
  N  1115  1  0.60213400  0.83582000  0.11154500  1
  N  1122  1  0.63939700  0.86154300  0.09024700  1
  N  1139  1  0.69119800  0.88386400  0.05229500  1
  N  1141  1  0.56083300  0.79409200  0.12835000  1
  N  1145  1  0.10211700  0.66392100  0.88819000  1
  N  1152  1  0.13938900  0.63819700  0.90948600  1
  N  1169  1  0.19118200  0.61587600  0.94743900  1
  N  1171  1  0.06082300  0.70564700  0.87138400  1
  N  1175  1  0.35147300  0.63885200  0.08463700  1
  N  1182  1  0.38803700  0.66031300  0.11032900  1
  N  1199  1  0.44025000  0.69823000  0.13259300  1
  N  1201  1  0.31044600  0.62187200  0.04297100  1
  N  1205  1  0.85146900  0.86088400  0.91509500  1
  N  1212  1  0.88803900  0.83942700  0.88940300  1
  N  1229  1  0.94027400  0.80151500  0.86713900  1
  N  1231  1  0.81044000  0.87786100  0.95676100  1
  N  1235  1  0.89825500  0.66504900  0.38881300  1
  N  1242  1  0.86177900  0.63936600  0.41031400  1
  N  1259  1  0.80958000  0.61712400  0.44825100  1
  N  1261  1  0.93928700  0.70670400  0.37179000  1
  N  1265  1  0.39828100  0.83468300  0.61092600  1
  N  1272  1  0.36178300  0.86036800  0.58943000  1
  N  1289  1  0.30957000  0.88261200  0.55149800  1
  N  1291  1  0.43930900  0.79302700  0.62794300  1
  N  1295  1  0.14763100  0.86157100  0.41390200  1
  N  1302  1  0.11044900  0.84023000  0.38819000  1
  N  1319  1  0.05869300  0.80224900  0.36588800  1
  N  1321  1  0.18893300  0.87842600  0.45561400  1
  N  1325  1  0.64765100  0.63816600  0.58584800  1
  N  1332  1  0.61046000  0.65950200  0.61156300  1
  N  1349  1  0.55866700  0.69747600  0.63386200  1
  N  1351  1  0.68894100  0.62131400  0.54413300  1
  N  1355  1  0.10332900  0.33492500  0.61128600  1
  N  1362  1  0.14042200  0.36079100  0.59012900  1
  N  1379  1  0.19189400  0.38338200  0.55227400  1
  N  1381  1  0.06135400  0.29315800  0.62772600  1
  N  1385  1  0.60332300  0.16482100  0.38845000  1
  N  1392  1  0.64042200  0.13895700  0.40960400  1
  N  1409  1  0.69188300  0.11636500  0.44746100  1
  N  1411  1  0.56135400  0.20658900  0.37200800  1
  N  1415  1  0.85327400  0.13832000  0.58484600  1
  N  1422  1  0.89039800  0.15953000  0.61066200  1
  N  1439  1  0.94187200  0.19743800  0.63316500  1
  N  1441  1  0.81126300  0.12178800  0.54311900  1
  N  1445  1  0.35325700  0.36141700  0.41488300  1
  N  1452  1  0.39039100  0.34021100  0.38906400  1
  N  1469  1  0.44189800  0.30231100  0.36656100  1
  N  1471  1  0.31124600  0.37794300  0.45661200  1
  N  1987  1  0.06502900  0.00172700  0.22236700  1
  N  1994  1  0.99787100  0.97542700  0.22528100  1
  N  2011  1  0.88464600  0.95156800  0.22346200  1
  N  2013  1  0.12214500  0.04371200  0.21457300  1
  N  2017  1  0.56503100  0.49801000  0.21497200  1
  N  2024  1  0.49787500  0.52430900  0.21205300  1
  N  2041  1  0.38465000  0.54816800  0.21387300  1
  N  2043  1  0.62214900  0.45602600  0.22277100  1
  N  2047  1  0.31488500  0.24614200  0.97033200  1
  N  2054  1  0.24768800  0.24321500  0.94404800  1
  N  2071  1  0.13443800  0.24503000  0.92019800  1
  N  2073  1  0.37209400  0.25397100  0.01229390  1
  N  2077  1  0.81488700  0.25359700  0.46701000  1
  N  2084  1  0.74768600  0.25652700  0.49329200  1
  N  2101  1  0.63442900  0.25472000  0.51713900  1
  N  2103  1  0.87209600  0.24576700  0.42504900  1
  N  2107  1  0.93666300  0.49594200  0.22580700  1
  N  2114  1  0.00668900  0.52093800  0.23004700  1
  N  2131  1  0.11699900  0.54572600  0.22391900  1
  N  2133  1  0.87497900  0.45560000  0.21509400  1
  N  2137  1  0.43666000  0.00379400  0.21153000  1
  N  2144  1  0.50668800  0.97879900  0.20728700  1
  N  2161  1  0.61699900  0.95401100  0.21341500  1
  N  2163  1  0.37497300  0.04413200  0.22225100  1
  N  2167  1  0.68673000  0.25686500  0.97225000  1
  N  2174  1  0.75663500  0.26092100  0.94716500  1
  N  2191  1  0.86693900  0.25472200  0.92237000  1
  N  2193  1  0.62510200  0.24630800  0.01265290  1
  N  2197  1  0.18672500  0.24287000  0.46509600  1
  N  2204  1  0.25662700  0.23881500  0.49018200  1
  N  2221  1  0.36694000  0.24500900  0.51497400  1
  N  2223  1  0.12511100  0.25341900  0.42468900  1
  N  2227  1  0.68456800  0.75352300  0.46674200  1
  N  2234  1  0.75175100  0.75644500  0.49304100  1
  N  2251  1  0.86500800  0.75463000  0.51689300  1
  N  2253  1  0.62742900  0.74570100  0.42476200  1
  N  2257  1  0.18456400  0.74621300  0.97059300  1
  N  2264  1  0.25175200  0.74329000  0.94429600  1
  N  2281  1  0.36500600  0.74510900  0.92044400  1
  N  2283  1  0.12742200  0.75403700  0.01257290  1
  N  2287  1  0.31295100  0.74253200  0.46449600  1
  N  2294  1  0.24302300  0.73846300  0.48957400  1
  N  2311  1  0.13275400  0.74471000  0.51437900  1
  N  2313  1  0.37463000  0.75312300  0.42410800  1
  N  2317  1  0.81295600  0.75720600  0.97283500  1
  N  2324  1  0.74303300  0.76127500  0.94775700  1
  N  2341  1  0.63275700  0.75503400  0.92295600  1
  N  2343  1  0.87462200  0.74662300  0.01322890  1
  N  2347  1  0.56511900  0.50172700  0.72237500  1
  N  2354  1  0.49788600  0.47544200  0.72530300  1
  N  2371  1  0.38458400  0.45161000  0.72350000  1
  N  2373  1  0.62233500  0.54369200  0.71452800  1
  N  2377  1  0.06511600  0.99800900  0.71496700  1
  N  2384  1  0.99787800  0.02429300  0.71203100  1
  N  2401  1  0.88457200  0.04812100  0.71382700  1
  N  2403  1  0.12233600  0.95604700  0.72281900  1
  N  2407  1  0.43674100  0.99590500  0.72591700  1
  N  2414  1  0.50653400  0.02108000  0.72979000  1
  N  2431  1  0.61681400  0.04588200  0.72347200  1
  N  2433  1  0.37516600  0.95543700  0.71550100  1
  N  2437  1  0.93673300  0.50382600  0.71142400  1
  N  2444  1  0.00653400  0.47865400  0.70754300  1
  N  2461  1  0.11682400  0.45385600  0.71385100  1
  N  2463  1  0.87516100  0.54429400  0.72184100  1
  N  2467  1  0.39949500  0.16416200  0.10737000  1
  N  2474  1  0.36288200  0.13862800  0.12902400  1
  N  2491  1  0.31032300  0.11667600  0.16706100  1
  N  2493  1  0.43979200  0.20576800  0.08996090  1
  N  2497  1  0.89951800  0.33557500  0.32997200  1
  N  2504  1  0.86288800  0.36110800  0.30832100  1
  N  2521  1  0.81031100  0.38306100  0.27028900  1
  N  2523  1  0.93980500  0.29396700  0.34738000  1
  N  2527  1  0.64947700  0.36104600  0.13289700  1
  N  2534  1  0.61290200  0.33943500  0.10731900  1
  N  2551  1  0.56041600  0.30143400  0.08528090  1
  N  2553  1  0.68970400  0.37838400  0.17454100  1
  N  2557  1  0.14948900  0.13869400  0.30444900  1
  N  2564  1  0.11290800  0.16030100  0.33002700  1
  N  2581  1  0.06038900  0.19829700  0.35206400  1
  N  2583  1  0.18970900  0.12135700  0.26280400  1
  N  2587  1  0.60213400  0.83582000  0.33034600  1
  N  2594  1  0.63939700  0.86154300  0.30904800  1
  N  2611  1  0.69119800  0.88386400  0.27109600  1
  N  2613  1  0.56083300  0.79409200  0.34715100  1
  N  2617  1  0.10211700  0.66392100  0.10699100  1
  N  2624  1  0.13938900  0.63819700  0.12828700  1
  N  2641  1  0.19118200  0.61587600  0.16624000  1
  N  2643  1  0.06082300  0.70564700  0.09018490  1
  N  2647  1  0.35147300  0.63885200  0.30343800  1
  N  2654  1  0.38803700  0.66031300  0.32913000  1
  N  2671  1  0.44025000  0.69823000  0.35139400  1
  N  2673  1  0.31044600  0.62187200  0.26177200  1
  N  2677  1  0.85146900  0.86088400  0.13389600  1
  N  2684  1  0.88803900  0.83942700  0.10820400  1
  N  2701  1  0.94027400  0.80151500  0.08593990  1
  N  2703  1  0.81044000  0.87786100  0.17556200  1
  N  2707  1  0.89825500  0.66504900  0.60761400  1
  N  2714  1  0.86177900  0.63936600  0.62911500  1
  N  2731  1  0.80958000  0.61712400  0.66705200  1
  N  2733  1  0.93928700  0.70670400  0.59059100  1
  N  2737  1  0.39828100  0.83468300  0.82972700  1
  N  2744  1  0.36178300  0.86036800  0.80823100  1
  N  2761  1  0.30957000  0.88261200  0.77029900  1
  N  2763  1  0.43930900  0.79302700  0.84674400  1
  N  2767  1  0.14763100  0.86157100  0.63270300  1
  N  2774  1  0.11044900  0.84023000  0.60699100  1
  N  2791  1  0.05869300  0.80224900  0.58468900  1
  N  2793  1  0.18893300  0.87842600  0.67441500  1
  N  2797  1  0.64765100  0.63816600  0.80464900  1
  N  2804  1  0.61046000  0.65950200  0.83036400  1
  N  2821  1  0.55866700  0.69747600  0.85266300  1
  N  2823  1  0.68894100  0.62131400  0.76293400  1
  N  2827  1  0.10332900  0.33492500  0.83008700  1
  N  2834  1  0.14042200  0.36079100  0.80893000  1
  N  2851  1  0.19189400  0.38338200  0.77107500  1
  N  2853  1  0.06135400  0.29315800  0.84652700  1
  N  2857  1  0.60332300  0.16482100  0.60725100  1
  N  2864  1  0.64042200  0.13895700  0.62840500  1
  N  2881  1  0.69188300  0.11636500  0.66626200  1
  N  2883  1  0.56135400  0.20658900  0.59080900  1
  N  2887  1  0.85327400  0.13832000  0.80364700  1
  N  2894  1  0.89039800  0.15953000  0.82946300  1
  N  2911  1  0.94187200  0.19743800  0.85196600  1
  N  2913  1  0.81126300  0.12178800  0.76192000  1
  N  2917  1  0.35325700  0.36141700  0.63368400  1
  N  2924  1  0.39039100  0.34021100  0.60786500  1
  N  2941  1  0.44189800  0.30231100  0.58536200  1
  N  2943  1  0.31124600  0.37794300  0.67541300  1
  O  17  1  0.21005700  0.05713500  0.99149600  1
  O  18  1  0.25296000  0.11125700  0.97857200  1
  O  49  1  0.71005900  0.44260200  0.00824800  1
  O  50  1  0.75295500  0.38848000  0.02117500  1
  O  81  1  0.46005600  0.25824700  0.80688900  1
  O  82  1  0.50307800  0.27114300  0.86100600  1
  O  113  1  0.96005800  0.24148900  0.19285100  1
  O  114  1  0.00307200  0.22859200  0.13873400  1
  O  145  1  0.78344200  0.94424400  0.00533600  1
  O  146  1  0.74627300  0.88953100  0.02159000  1
  O  177  1  0.28344000  0.55549300  0.99439500  1
  O  178  1  0.24627100  0.61020600  0.97814200  1
  O  209  1  0.53962800  0.74138600  0.19239700  1
  O  210  1  0.49719700  0.72859700  0.13817800  1
  O  241  1  0.03962500  0.75835400  0.80733800  1
  O  242  1  0.99719900  0.77114500  0.86155700  1
  O  273  1  0.71012500  0.55727300  0.49137800  1
  O  274  1  0.75265400  0.61150400  0.47863600  1
  O  305  1  0.21012700  0.94246400  0.50836800  1
  O  306  1  0.25264900  0.88823400  0.52111300  1
  O  337  1  0.96625400  0.75534800  0.30542400  1
  O  338  1  0.00354300  0.77153600  0.36016300  1
  O  369  1  0.46625900  0.74438600  0.69431500  1
  O  370  1  0.50355000  0.72819100  0.63957800  1
  O  401  1  0.28334000  0.44412100  0.50547400  1
  O  402  1  0.24660000  0.38926900  0.52151500  1
  O  433  1  0.78333000  0.05561500  0.49425200  1
  O  434  1  0.74660500  0.11047100  0.47821800  1
  O  465  1  0.03330200  0.24426900  0.69385500  1
  O  466  1  0.99667100  0.22821300  0.63900200  1
  O  497  1  0.53329900  0.25547600  0.30587900  1
  O  498  1  0.49666800  0.27153500  0.36073100  1
  O  1489  1  0.21005700  0.05713500  0.21029700  1
  O  1490  1  0.25296000  0.11125700  0.19737300  1
  O  1521  1  0.71005900  0.44260200  0.22704900  1
  O  1522  1  0.75295500  0.38848000  0.23997600  1
  O  1553  1  0.46005600  0.25824700  0.02568990  1
  O  1554  1  0.50307800  0.27114300  0.07980690  1
  O  1585  1  0.96005800  0.24148900  0.41165200  1
  O  1586  1  0.00307200  0.22859200  0.35753500  1
  O  1617  1  0.78344200  0.94424400  0.22413700  1
  O  1618  1  0.74627300  0.88953100  0.24039100  1
  O  1649  1  0.28344000  0.55549300  0.21319600  1
  O  1650  1  0.24627100  0.61020600  0.19694300  1
  O  1681  1  0.53962800  0.74138600  0.41119800  1
  O  1682  1  0.49719700  0.72859700  0.35697900  1
  O  1713  1  0.03962500  0.75835400  0.02613890  1
  O  1714  1  0.99719900  0.77114500  0.08035790  1
  O  1745  1  0.71012500  0.55727300  0.71017900  1
  O  1746  1  0.75265400  0.61150400  0.69743700  1
  O  1777  1  0.21012700  0.94246400  0.72716900  1
  O  1778  1  0.25264900  0.88823400  0.73991400  1
  O  1809  1  0.96625400  0.75534800  0.52422500  1
  O  1810  1  0.00354300  0.77153600  0.57896400  1
  O  1841  1  0.46625900  0.74438600  0.91311600  1
  O  1842  1  0.50355000  0.72819100  0.85837900  1
  O  1873  1  0.28334000  0.44412100  0.72427500  1
  O  1874  1  0.24660000  0.38926900  0.74031600  1
  O  1905  1  0.78333000  0.05561500  0.71305300  1
  O  1906  1  0.74660500  0.11047100  0.69701900  1
  O  1937  1  0.03330200  0.24426900  0.91265600  1
  O  1938  1  0.99667100  0.22821300  0.85780300  1
  O  1969  1  0.53329900  0.25547600  0.52468000  1
  O  1970  1  0.49666800  0.27153500  0.57953200  1
