# generated using pymatgen
data_H28C51(N3O2)4
_symmetry_space_group_name_H-M   'P 1'
_cell_length_a   41.65970000
_cell_length_b   41.65970000
_cell_length_c   55.14800000
_cell_angle_alpha   90.00000000
_cell_angle_beta   90.00000000
_cell_angle_gamma   90.00000000
_symmetry_Int_Tables_number   1
_chemical_formula_structural   H28C51(N3O2)4
_chemical_formula_sum   'H448 C816 N192 O128'
_cell_volume   95711.04175436
_cell_formula_units_Z   16
loop_
 _symmetry_equiv_pos_site_id
 _symmetry_equiv_pos_as_xyz
  1  'x, y, z'
loop_
 _atom_site_type_symbol
 _atom_site_label
 _atom_site_symmetry_multiplicity
 _atom_site_fract_x
 _atom_site_fract_y
 _atom_site_fract_z
 _atom_site_occupancy
  H  25  1  0.23764600  0.02634500  0.19547200  1
  H  26  1  0.20484200  0.99873900  0.16681100  1
  H  27  1  0.13284700  0.99716000  0.09581500  1
  H  28  1  0.10185000  0.02346100  0.06540700  1
  H  29  1  0.12836900  0.11316400  0.09399000  1
  H  30  1  0.21005600  0.11472600  0.16515300  1
  H  31  1  0.11998800  0.07453800  0.16206800  1
  H  32  1  0.08371200  0.16573200  0.18051200  1
  H  33  1  0.12238900  0.19065400  0.15536200  1
  H  34  1  0.21804700  0.07350000  0.09962300  1
  H  35  1  0.21285100  0.18985500  0.10158800  1
  H  36  1  0.25245000  0.16409300  0.07775000  1
  H  39  1  0.18487900  0.00561600  0.12149900  1
  H  40  1  0.15166100  0.00654400  0.14159400  1
  H  42  1  0.15416600  0.18040500  0.11607200  1
  H  43  1  0.18106600  0.18173100  0.14106500  1
  H  72  1  0.60432700  0.17011400  0.67376700  1
  H  73  1  0.64553200  0.18842100  0.64753800  1
  H  74  1  0.72305300  0.17312400  0.58308400  1
  H  75  1  0.75234100  0.14088100  0.55555400  1
  H  76  1  0.71030700  0.05768800  0.58501000  1
  H  77  1  0.61905800  0.07511100  0.65028500  1
  H  78  1  0.71787100  0.09746500  0.65060900  1
  H  79  1  0.73111400  0.00346400  0.67675700  1
  H  80  1  0.69032900  0.98435600  0.65051300  1
  H  81  1  0.62833300  0.11256000  0.58354100  1
  H  82  1  0.61565700  0.99709700  0.58392700  1
  H  83  1  0.58769700  0.02818000  0.55492300  1
  H  86  1  0.66875600  0.17441100  0.60527500  1
  H  87  1  0.69912800  0.16953900  0.62756400  1
  H  89  1  0.66865800  0.99652400  0.60756000  1
  H  90  1  0.63751000  0.00273500  0.62903100  1
  H  119  1  0.09962700  0.52353400  0.56797000  1
  H  120  1  0.13571500  0.49604700  0.59433000  1
  H  121  1  0.21339700  0.49387000  0.66174300  1
  H  122  1  0.24616100  0.51991200  0.69125600  1
  H  123  1  0.21090600  0.60957700  0.66864400  1
  H  124  1  0.12254200  0.61098100  0.60187500  1
  H  125  1  0.21556700  0.57790100  0.60011400  1
  H  126  1  0.24059200  0.67307500  0.58282100  1
  H  127  1  0.20204500  0.69267400  0.61080000  1
  H  128  1  0.12346800  0.56301600  0.66512100  1
  H  129  1  0.12346700  0.67847800  0.67471900  1
  H  130  1  0.09089200  0.64654800  0.70028500  1
  H  133  1  0.15823800  0.50085500  0.63936900  1
  H  134  1  0.18953400  0.50528700  0.61783200  1
  H  136  1  0.17759600  0.67635800  0.65226700  1
  H  137  1  0.14682100  0.67754200  0.63001000  1
  H  166  1  0.74468300  0.64919100  0.06304700  1
  H  167  1  0.71323800  0.67587300  0.09300700  1
  H  168  1  0.63844600  0.67509600  0.16220800  1
  H  169  1  0.60330700  0.64823500  0.18957000  1
  H  170  1  0.62272100  0.56042900  0.15492700  1
  H  171  1  0.70889800  0.56016200  0.08659900  1
  H  172  1  0.62189800  0.60841700  0.09181500  1
  H  173  1  0.58648500  0.52567600  0.05717200  1
  H  174  1  0.62002800  0.49308500  0.08161100  1
  H  175  1  0.71530200  0.59172500  0.15557800  1
  H  176  1  0.70115200  0.47728400  0.14354100  1
  H  177  1  0.74015100  0.49609300  0.17148300  1
  H  180  1  0.69076500  0.66507600  0.13735400  1
  H  181  1  0.65874200  0.66979600  0.11646900  1
  H  183  1  0.64555600  0.49301100  0.12544100  1
  H  184  1  0.67552800  0.49462600  0.10258700  1
  H  213  1  0.83421300  0.40084000  0.33123200  1
  H  214  1  0.81631600  0.36001000  0.35792600  1
  H  215  1  0.83251100  0.28316600  0.42262600  1
  H  216  1  0.86511900  0.25391900  0.44991800  1
  H  217  1  0.94797600  0.29518000  0.41930300  1
  H  218  1  0.92965300  0.38592700  0.35361800  1
  H  219  1  0.90748300  0.28615600  0.35508600  1
  H  220  1  0.00078700  0.27339800  0.32743900  1
  H  221  1  0.02004800  0.31554000  0.35234500  1
  H  222  1  0.89345500  0.37679600  0.42143700  1
  H  223  1  0.00869300  0.39082400  0.41866300  1
  H  224  1  0.97836000  0.41833900  0.44836400  1
  H  227  1  0.83110000  0.33723000  0.40015100  1
  H  228  1  0.83533900  0.30658900  0.37799700  1
  H  230  1  0.00922400  0.33806300  0.39505000  1
  H  231  1  0.00143200  0.36878800  0.37352800  1
  H  260  1  0.98029000  0.76874700  0.81317600  1
  H  261  1  0.00816500  0.80539200  0.83886100  1
  H  262  1  0.01182400  0.88154400  0.90724800  1
  H  263  1  0.98659100  0.91227000  0.93830100  1
  H  264  1  0.89637200  0.87791300  0.91614900  1
  H  265  1  0.89369800  0.79075200  0.84864700  1
  H  266  1  0.92617700  0.88469900  0.84674700  1
  H  267  1  0.83045400  0.90925900  0.83087700  1
  H  268  1  0.81177200  0.87010400  0.85873100  1
  H  269  1  0.94329000  0.79220400  0.91100100  1
  H  270  1  0.82810900  0.79147700  0.92238400  1
  H  271  1  0.86100200  0.75967100  0.94779500  1
  H  274  1  0.00472700  0.82761200  0.88384700  1
  H  275  1  0.99892900  0.85922300  0.86276200  1
  H  277  1  0.82911500  0.84524800  0.89974600  1
  H  278  1  0.82781900  0.81465000  0.87735700  1
  H  307  1  0.33567200  0.26017000  0.92431500  1
  H  308  1  0.31684100  0.29768100  0.89525700  1
  H  309  1  0.33365100  0.37448200  0.83057200  1
  H  310  1  0.36633200  0.40824600  0.80647400  1
  H  311  1  0.44708200  0.38335800  0.84833400  1
  H  312  1  0.43063400  0.29121700  0.91310700  1
  H  313  1  0.39129600  0.38470000  0.90697800  1
  H  314  1  0.47138600  0.41169500  0.94879200  1
  H  315  1  0.50425900  0.37609000  0.92632600  1
  H  316  1  0.40908600  0.29201300  0.84278500  1
  H  317  1  0.52211600  0.29671800  0.86354000  1
  H  318  1  0.50412500  0.25999200  0.83359900  1
  H  321  1  0.33617400  0.32209000  0.85474400  1
  H  322  1  0.33082600  0.35351900  0.87611500  1
  H  324  1  0.50834500  0.35262100  0.88201200  1
  H  325  1  0.50128000  0.32188600  0.90367000  1
  H  354  1  0.48030800  0.90585800  0.43987300  1
  H  355  1  0.50836100  0.86985000  0.41380100  1
  H  356  1  0.51221200  0.79395900  0.34528000  1
  H  357  1  0.48696900  0.76247700  0.31465200  1
  H  358  1  0.39663000  0.79612400  0.33713500  1
  H  359  1  0.39367500  0.88342200  0.40461900  1
  H  360  1  0.42698600  0.78992400  0.40610400  1
  H  361  1  0.33156700  0.76463300  0.42240200  1
  H  362  1  0.31236400  0.80370700  0.39468300  1
  H  363  1  0.44282600  0.88294400  0.34206100  1
  H  364  1  0.32758300  0.88251200  0.33102900  1
  H  365  1  0.35998600  0.91491500  0.30569000  1
  H  368  1  0.50470800  0.84800800  0.36862300  1
  H  369  1  0.49957800  0.81627000  0.38969700  1
  H  371  1  0.32923600  0.82864400  0.35355600  1
  H  372  1  0.32780600  0.85921100  0.37596700  1
  H  383  1  0.04017700  0.03892200  0.06593800  1
  H  390  1  0.96926500  0.97210700  0.94121300  1
  H  391  1  0.94304000  0.93696200  0.00987700  1
  H  392  1  0.07090700  0.06961100  0.99712600  1
  H  401  1  0.90482100  0.94106000  0.97156400  1
  H  402  1  0.06834400  0.10574500  0.03626100  1
  H  409  1  0.81319500  0.11684000  0.56235200  1
  H  416  1  0.88868600  0.19291100  0.44225400  1
  H  417  1  0.91003000  0.22574400  0.51251200  1
  H  418  1  0.77940500  0.09659200  0.49216700  1
  H  427  1  0.95016000  0.22599100  0.47371100  1
  H  428  1  0.77947000  0.05597500  0.53071700  1
  H  435  1  0.30560000  0.53517400  0.69265600  1
  H  442  1  0.37622700  0.47098700  0.81874100  1
  H  443  1  0.41726200  0.45111700  0.75071600  1
  H  444  1  0.27832200  0.57027000  0.76110500  1
  H  453  1  0.44857200  0.45154900  0.79298800  1
  H  454  1  0.27801000  0.60353700  0.72088800  1
  H  461  1  0.54106000  0.63975500  0.18506900  1
  H  468  1  0.47189500  0.70318000  0.31169600  1
  H  469  1  0.43976300  0.73458000  0.24341600  1
  H  470  1  0.56123000  0.59752700  0.25262800  1
  H  479  1  0.40453500  0.73164900  0.28290200  1
  H  480  1  0.55980700  0.56682800  0.21119900  1
  H  487  1  0.37295700  0.68979800  0.43787500  1
  H  494  1  0.31533100  0.62953100  0.56681300  1
  H  495  1  0.26103900  0.62189800  0.50259100  1
  H  496  1  0.38355500  0.74213600  0.50274500  1
  H  505  1  0.23563600  0.63008800  0.54295500  1
  H  506  1  0.37360500  0.76844700  0.46256100  1
  H  513  1  0.87176300  0.48123000  0.31921400  1
  H  520  1  0.81522600  0.53967700  0.18933100  1
  H  521  1  0.75917900  0.54569700  0.25273600  1
  H  522  1  0.88748100  0.43016100  0.25435700  1
  H  531  1  0.73509100  0.53734600  0.21196400  1
  H  532  1  0.87909600  0.40276800  0.29385500  1
  H  539  1  0.46267900  0.18944600  0.81280000  1
  H  546  1  0.52328700  0.13018200  0.68431900  1
  H  547  1  0.57390000  0.11710800  0.74973000  1
  H  548  1  0.45850800  0.24456000  0.74884000  1
  H  557  1  0.60189800  0.12356300  0.71057300  1
  H  558  1  0.46832800  0.26837700  0.79036200  1
  H  565  1  0.03782600  0.53301100  0.57308200  1
  H  572  1  0.95703700  0.47794600  0.44801600  1
  H  573  1  0.93411300  0.43840700  0.51597300  1
  H  574  1  0.05510700  0.57722200  0.50581400  1
  H  583  1  0.89452800  0.44308500  0.47736300  1
  H  584  1  0.05705700  0.60639600  0.54763400  1
  H  591  1  0.80429500  0.63195100  0.06284200  1
  H  598  1  0.87773300  0.69773900  0.93820800  1
  H  599  1  0.91078100  0.72523000  0.00719000  1
  H  600  1  0.77533400  0.60088500  0.99368600  1
  H  609  1  0.94577000  0.72420800  0.96611900  1
  H  610  1  0.77499800  0.56557700  0.03317000  1
  H  617  1  0.29864800  0.04008700  0.19151700  1
  H  624  1  0.37553500  0.97673200  0.31574000  1
  H  625  1  0.40954900  0.95145100  0.24653500  1
  H  626  1  0.27757700  0.07809600  0.26034500  1
  H  635  1  0.44418900  0.95194100  0.28763200  1
  H  636  1  0.27439500  0.11016300  0.21999000  1
  H  643  1  0.37893200  0.18734700  0.94016800  1
  H  650  1  0.32199000  0.11799800  0.06654900  1
  H  651  1  0.27041500  0.10854900  0.00120400  1
  H  652  1  0.38384100  0.23712000  0.00655700  1
  H  661  1  0.24322100  0.11542600  0.04053000  1
  H  662  1  0.37255900  0.26409000  0.96640300  1
  H  669  1  0.87224300  0.98460800  0.81505200  1
  H  676  1  0.81353200  0.04534800  0.68636600  1
  H  677  1  0.76157700  0.05658800  0.75138900  1
  H  678  1  0.88105000  0.93186200  0.75021400  1
  H  687  1  0.73413300  0.05119500  0.71224000  1
  H  688  1  0.87198600  0.90572800  0.79044900  1
  H  695  1  0.52748300  0.04965800  0.55749100  1
  H  702  1  0.47117000  0.96747900  0.43322700  1
  H  703  1  0.42625800  0.95269500  0.50058200  1
  H  704  1  0.56491700  0.07322800  0.48897500  1
  H  713  1  0.39740800  0.94914000  0.45886300  1
  H  714  1  0.56137000  0.11250100  0.52789000  1
  H  721  1  0.02874100  0.63140100  0.69262000  1
  H  728  1  0.97219100  0.70688400  0.81911200  1
  H  729  1  0.92500800  0.72211500  0.75269500  1
  H  730  1  0.05729600  0.59634100  0.76079600  1
  H  739  1  0.89749800  0.72432500  0.79504100  1
  H  740  1  0.05436400  0.56236300  0.71933200  1
  H  747  1  0.95958100  0.18908700  0.32234500  1
  H  754  1  0.01563500  0.12048500  0.19522700  1
  H  755  1  0.06911300  0.11328000  0.25981900  1
  H  756  1  0.94676100  0.23582600  0.25529500  1
  H  765  1  0.09476100  0.12117100  0.21963100  1
  H  766  1  0.95363300  0.26619500  0.29308800  1
  H  773  1  0.52507800  0.54083200  0.06449900  1
  H  780  1  0.46259500  0.47411700  0.93670700  1
  H  781  1  0.41661800  0.45633800  0.00324300  1
  H  782  1  0.55183300  0.57963700  0.99708100  1
  H  791  1  0.38851000  0.45562200  0.95987400  1
  H  792  1  0.55083700  0.61104600  0.03949400  1
  H  817  1  0.23764600  0.43441300  0.21360500  1
  H  818  1  0.20484200  0.40680700  0.18494400  1
  H  819  1  0.13284700  0.40522800  0.11394800  1
  H  820  1  0.10185000  0.43152900  0.08354000  1
  H  821  1  0.12836900  0.52123200  0.11212300  1
  H  822  1  0.21005600  0.52279400  0.18328600  1
  H  823  1  0.11998800  0.48260600  0.18020100  1
  H  824  1  0.08371200  0.57380000  0.19864500  1
  H  825  1  0.12238900  0.59872200  0.17349500  1
  H  826  1  0.21804700  0.48156800  0.11775600  1
  H  827  1  0.21285100  0.59792300  0.11972100  1
  H  828  1  0.25245000  0.57216100  0.09588300  1
  H  831  1  0.18487900  0.41368400  0.13963200  1
  H  832  1  0.15166100  0.41461200  0.15972700  1
  H  834  1  0.15416600  0.58847300  0.13420500  1
  H  835  1  0.18106600  0.58979900  0.15919800  1
  H  864  1  0.60432700  0.57818200  0.69190000  1
  H  865  1  0.64553200  0.59648900  0.66567100  1
  H  866  1  0.72305300  0.58119200  0.60121700  1
  H  867  1  0.75234100  0.54894900  0.57368700  1
  H  868  1  0.71030700  0.46575600  0.60314300  1
  H  869  1  0.61905800  0.48317900  0.66841800  1
  H  870  1  0.71787100  0.50553300  0.66874200  1
  H  871  1  0.73111400  0.41153200  0.69489000  1
  H  872  1  0.69032900  0.39242400  0.66864600  1
  H  873  1  0.62833300  0.52062800  0.60167400  1
  H  874  1  0.61565700  0.40516500  0.60206000  1
  H  875  1  0.58769700  0.43624800  0.57305600  1
  H  878  1  0.66875600  0.58247900  0.62340800  1
  H  879  1  0.69912800  0.57760700  0.64569700  1
  H  881  1  0.66865800  0.40459200  0.62569300  1
  H  882  1  0.63751000  0.41080300  0.64716400  1
  H  911  1  0.09962700  0.93160200  0.58610300  1
  H  912  1  0.13571500  0.90411500  0.61246300  1
  H  913  1  0.21339700  0.90193800  0.67987600  1
  H  914  1  0.24616100  0.92798000  0.70938900  1
  H  915  1  0.21090600  0.01764520  0.68677700  1
  H  916  1  0.12254200  0.01904920  0.62000800  1
  H  917  1  0.21556700  0.98596900  0.61824700  1
  H  918  1  0.24059200  0.08114320  0.60095400  1
  H  919  1  0.20204500  0.10074200  0.62893300  1
  H  920  1  0.12346800  0.97108400  0.68325400  1
  H  921  1  0.12346700  0.08654620  0.69285200  1
  H  922  1  0.09089200  0.05461620  0.71841800  1
  H  925  1  0.15823800  0.90892300  0.65750200  1
  H  926  1  0.18953400  0.91335500  0.63596500  1
  H  928  1  0.17759600  0.08442620  0.67040000  1
  H  929  1  0.14682100  0.08561020  0.64814300  1
  H  958  1  0.74468300  0.05725920  0.08118000  1
  H  959  1  0.71323800  0.08394120  0.11114000  1
  H  960  1  0.63844600  0.08316420  0.18034100  1
  H  961  1  0.60330700  0.05630320  0.20770300  1
  H  962  1  0.62272100  0.96849700  0.17306000  1
  H  963  1  0.70889800  0.96823000  0.10473200  1
  H  964  1  0.62189800  0.01648520  0.10994800  1
  H  965  1  0.58648500  0.93374400  0.07530500  1
  H  966  1  0.62002800  0.90115300  0.09974400  1
  H  967  1  0.71530200  0.99979300  0.17371100  1
  H  968  1  0.70115200  0.88535200  0.16167400  1
  H  969  1  0.74015100  0.90416100  0.18961600  1
  H  972  1  0.69076500  0.07314420  0.15548700  1
  H  973  1  0.65874200  0.07786420  0.13460200  1
  H  975  1  0.64555600  0.90107900  0.14357400  1
  H  976  1  0.67552800  0.90269400  0.12072000  1
  H  1005  1  0.83421300  0.80890800  0.34936500  1
  H  1006  1  0.81631600  0.76807800  0.37605900  1
  H  1007  1  0.83251100  0.69123400  0.44075900  1
  H  1008  1  0.86511900  0.66198700  0.46805100  1
  H  1009  1  0.94797600  0.70324800  0.43743600  1
  H  1010  1  0.92965300  0.79399500  0.37175100  1
  H  1011  1  0.90748300  0.69422400  0.37321900  1
  H  1012  1  0.00078700  0.68146600  0.34557200  1
  H  1013  1  0.02004800  0.72360800  0.37047800  1
  H  1014  1  0.89345500  0.78486400  0.43957000  1
  H  1015  1  0.00869300  0.79889200  0.43679600  1
  H  1016  1  0.97836000  0.82640700  0.46649700  1
  H  1019  1  0.83110000  0.74529800  0.41828400  1
  H  1020  1  0.83533900  0.71465700  0.39613000  1
  H  1022  1  0.00922400  0.74613100  0.41318300  1
  H  1023  1  0.00143200  0.77685600  0.39166100  1
  H  1052  1  0.98029000  0.17681500  0.83130900  1
  H  1053  1  0.00816500  0.21346000  0.85699400  1
  H  1054  1  0.01182400  0.28961200  0.92538100  1
  H  1055  1  0.98659100  0.32033800  0.95643400  1
  H  1056  1  0.89637200  0.28598100  0.93428200  1
  H  1057  1  0.89369800  0.19882000  0.86678000  1
  H  1058  1  0.92617700  0.29276700  0.86488000  1
  H  1059  1  0.83045400  0.31732700  0.84901000  1
  H  1060  1  0.81177200  0.27817200  0.87686400  1
  H  1061  1  0.94329000  0.20027200  0.92913400  1
  H  1062  1  0.82810900  0.19954500  0.94051700  1
  H  1063  1  0.86100200  0.16773900  0.96592800  1
  H  1066  1  0.00472700  0.23568000  0.90198000  1
  H  1067  1  0.99892900  0.26729100  0.88089500  1
  H  1069  1  0.82911500  0.25331600  0.91787900  1
  H  1070  1  0.82781900  0.22271800  0.89549000  1
  H  1099  1  0.33567200  0.66823800  0.94244800  1
  H  1100  1  0.31684100  0.70574900  0.91339000  1
  H  1101  1  0.33365100  0.78255000  0.84870500  1
  H  1102  1  0.36633200  0.81631400  0.82460700  1
  H  1103  1  0.44708200  0.79142600  0.86646700  1
  H  1104  1  0.43063400  0.69928500  0.93124000  1
  H  1105  1  0.39129600  0.79276800  0.92511100  1
  H  1106  1  0.47138600  0.81976300  0.96692500  1
  H  1107  1  0.50425900  0.78415800  0.94445900  1
  H  1108  1  0.40908600  0.70008100  0.86091800  1
  H  1109  1  0.52211600  0.70478600  0.88167300  1
  H  1110  1  0.50412500  0.66806000  0.85173200  1
  H  1113  1  0.33617400  0.73015800  0.87287700  1
  H  1114  1  0.33082600  0.76158700  0.89424800  1
  H  1116  1  0.50834500  0.76068900  0.90014500  1
  H  1117  1  0.50128000  0.72995400  0.92180300  1
  H  1146  1  0.48030800  0.31392600  0.45800600  1
  H  1147  1  0.50836100  0.27791800  0.43193400  1
  H  1148  1  0.51221200  0.20202700  0.36341300  1
  H  1149  1  0.48696900  0.17054500  0.33278500  1
  H  1150  1  0.39663000  0.20419200  0.35526800  1
  H  1151  1  0.39367500  0.29149000  0.42275200  1
  H  1152  1  0.42698600  0.19799200  0.42423700  1
  H  1153  1  0.33156700  0.17270100  0.44053500  1
  H  1154  1  0.31236400  0.21177500  0.41281600  1
  H  1155  1  0.44282600  0.29101200  0.36019400  1
  H  1156  1  0.32758300  0.29058000  0.34916200  1
  H  1157  1  0.35998600  0.32298300  0.32382300  1
  H  1160  1  0.50470800  0.25607600  0.38675600  1
  H  1161  1  0.49957800  0.22433800  0.40783000  1
  H  1163  1  0.32923600  0.23671200  0.37168900  1
  H  1164  1  0.32780600  0.26727900  0.39410000  1
  H  1175  1  0.04017700  0.44699000  0.08407100  1
  H  1182  1  0.96926500  0.38017500  0.95934600  1
  H  1183  1  0.94304000  0.34503000  0.02801000  1
  H  1184  1  0.07090700  0.47767900  0.01525900  1
  H  1193  1  0.90482100  0.34912800  0.98969700  1
  H  1194  1  0.06834400  0.51381300  0.05439400  1
  H  1201  1  0.81319500  0.52490800  0.58048500  1
  H  1208  1  0.88868600  0.60097900  0.46038700  1
  H  1209  1  0.91003000  0.63381200  0.53064500  1
  H  1210  1  0.77940500  0.50466000  0.51030000  1
  H  1219  1  0.95016000  0.63405900  0.49184400  1
  H  1220  1  0.77947000  0.46404300  0.54885000  1
  H  1227  1  0.30560000  0.94324200  0.71078900  1
  H  1234  1  0.37622700  0.87905500  0.83687400  1
  H  1235  1  0.41726200  0.85918500  0.76884900  1
  H  1236  1  0.27832200  0.97833800  0.77923800  1
  H  1245  1  0.44857200  0.85961700  0.81112100  1
  H  1246  1  0.27801000  0.01160520  0.73902100  1
  H  1253  1  0.54106000  0.04782320  0.20320200  1
  H  1260  1  0.47189500  0.11124800  0.32982900  1
  H  1261  1  0.43976300  0.14264800  0.26154900  1
  H  1262  1  0.56123000  0.00559523  0.27076100  1
  H  1271  1  0.40453500  0.13971700  0.30103500  1
  H  1272  1  0.55980700  0.97489600  0.22933200  1
  H  1279  1  0.37295700  0.09786620  0.45600800  1
  H  1286  1  0.31533100  0.03759920  0.58494600  1
  H  1287  1  0.26103900  0.02996620  0.52072400  1
  H  1288  1  0.38355500  0.15020400  0.52087800  1
  H  1297  1  0.23563600  0.03815620  0.56108800  1
  H  1298  1  0.37360500  0.17651500  0.48069400  1
  H  1305  1  0.87176300  0.88929800  0.33734700  1
  H  1312  1  0.81522600  0.94774500  0.20746400  1
  H  1313  1  0.75917900  0.95376500  0.27086900  1
  H  1314  1  0.88748100  0.83822900  0.27249000  1
  H  1323  1  0.73509100  0.94541400  0.23009700  1
  H  1324  1  0.87909600  0.81083600  0.31198800  1
  H  1331  1  0.46267900  0.59751400  0.83093300  1
  H  1338  1  0.52328700  0.53825000  0.70245200  1
  H  1339  1  0.57390000  0.52517600  0.76786300  1
  H  1340  1  0.45850800  0.65262800  0.76697300  1
  H  1349  1  0.60189800  0.53163100  0.72870600  1
  H  1350  1  0.46832800  0.67644500  0.80849500  1
  H  1357  1  0.03782600  0.94107900  0.59121500  1
  H  1364  1  0.95703700  0.88601400  0.46614900  1
  H  1365  1  0.93411300  0.84647500  0.53410600  1
  H  1366  1  0.05510700  0.98529000  0.52394700  1
  H  1375  1  0.89452800  0.85115300  0.49549600  1
  H  1376  1  0.05705700  0.01446420  0.56576700  1
  H  1383  1  0.80429500  0.04001920  0.08097500  1
  H  1390  1  0.87773300  0.10580700  0.95634100  1
  H  1391  1  0.91078100  0.13329800  0.02532300  1
  H  1392  1  0.77533400  0.00895323  0.01181900  1
  H  1401  1  0.94577000  0.13227600  0.98425200  1
  H  1402  1  0.77499800  0.97364500  0.05130300  1
  H  1409  1  0.29864800  0.44815500  0.20965000  1
  H  1416  1  0.37553500  0.38480000  0.33387300  1
  H  1417  1  0.40954900  0.35951900  0.26466800  1
  H  1418  1  0.27757700  0.48616400  0.27847800  1
  H  1427  1  0.44418900  0.36000900  0.30576500  1
  H  1428  1  0.27439500  0.51823100  0.23812300  1
  H  1435  1  0.37893200  0.59541500  0.95830100  1
  H  1442  1  0.32199000  0.52606600  0.08468200  1
  H  1443  1  0.27041500  0.51661700  0.01933700  1
  H  1444  1  0.38384100  0.64518800  0.02469000  1
  H  1453  1  0.24322100  0.52349400  0.05866300  1
  H  1454  1  0.37255900  0.67215800  0.98453600  1
  H  1461  1  0.87224300  0.39267600  0.83318500  1
  H  1468  1  0.81353200  0.45341600  0.70449900  1
  H  1469  1  0.76157700  0.46465600  0.76952200  1
  H  1470  1  0.88105000  0.33993000  0.76834700  1
  H  1479  1  0.73413300  0.45926300  0.73037300  1
  H  1480  1  0.87198600  0.31379600  0.80858200  1
  H  1487  1  0.52748300  0.45772600  0.57562400  1
  H  1494  1  0.47117000  0.37554700  0.45136000  1
  H  1495  1  0.42625800  0.36076300  0.51871500  1
  H  1496  1  0.56491700  0.48129600  0.50710800  1
  H  1505  1  0.39740800  0.35720800  0.47699600  1
  H  1506  1  0.56137000  0.52056900  0.54602300  1
  H  1513  1  0.02874100  0.03946920  0.71075300  1
  H  1520  1  0.97219100  0.11495200  0.83724500  1
  H  1521  1  0.92500800  0.13018300  0.77082800  1
  H  1522  1  0.05729600  0.00440923  0.77892900  1
  H  1531  1  0.89749800  0.13239300  0.81317400  1
  H  1532  1  0.05436400  0.97043100  0.73746500  1
  H  1539  1  0.95958100  0.59715500  0.34047800  1
  H  1546  1  0.01563500  0.52855300  0.21336000  1
  H  1547  1  0.06911300  0.52134800  0.27795200  1
  H  1548  1  0.94676100  0.64389400  0.27342800  1
  H  1557  1  0.09476100  0.52923900  0.23776400  1
  H  1558  1  0.95363300  0.67426300  0.31122100  1
  H  1565  1  0.52507800  0.94890000  0.08263200  1
  H  1572  1  0.46259500  0.88218500  0.95484000  1
  H  1573  1  0.41661800  0.86440600  0.02137600  1
  H  1574  1  0.55183300  0.98770500  0.01521400  1
  H  1583  1  0.38851000  0.86369000  0.97800700  1
  H  1584  1  0.55083700  0.01911420  0.05762700  1
  C  1  1  0.19232400  0.11287700  0.11489900  1
  C  2  1  0.19135400  0.14701300  0.11495300  1
  C  3  1  0.14484300  0.14744700  0.14367300  1
  C  4  1  0.14466000  0.11334500  0.14507300  1
  C  5  1  0.12107900  0.09897400  0.16053300  1
  C  6  1  0.09921400  0.11782100  0.17420400  1
  C  7  1  0.09974000  0.15142700  0.17143300  1
  C  8  1  0.12243100  0.16609900  0.15661300  1
  C  9  1  0.21340300  0.16525300  0.10133900  1
  C  10  1  0.23661600  0.15009000  0.08728200  1
  C  11  1  0.23804000  0.11635800  0.08600000  1
  C  12  1  0.21637400  0.09797800  0.10017000  1
  C  13  1  0.18847100  0.07447600  0.14825800  1
  C  14  1  0.18763500  0.04039500  0.14873900  1
  C  15  1  0.14957900  0.03959800  0.11307800  1
  C  16  1  0.14889800  0.07367700  0.11258600  1
  C  17  1  0.13200800  0.02173500  0.09576400  1
  C  18  1  0.11349300  0.03713000  0.07798900  1
  C  19  1  0.11140200  0.07083400  0.07751900  1
  C  20  1  0.12934000  0.08861200  0.09466700  1
  C  21  1  0.20880800  0.09016900  0.16528600  1
  C  22  1  0.22769400  0.07310900  0.18227300  1
  C  23  1  0.22530500  0.03943700  0.18291300  1
  C  24  1  0.20572800  0.02330000  0.16619200  1
  C  37  1  0.16858000  0.09360200  0.13023500  1
  C  38  1  0.16840100  0.02147100  0.13127000  1
  C  41  1  0.16783000  0.16569400  0.12890200  1
  C  48  1  0.64421500  0.06999000  0.60085600  1
  C  49  1  0.63943500  0.03623500  0.60096300  1
  C  50  1  0.67923400  0.02963600  0.63478100  1
  C  51  1  0.68654600  0.06299900  0.63462100  1
  C  52  1  0.71129100  0.07381200  0.65065300  1
  C  53  1  0.72737900  0.05253200  0.66666667  1
  C  54  1  0.71914500  0.01973100  0.66614000  1
  C  55  1  0.69525400  0.00846200  0.65063300  1
  C  56  1  0.61849700  0.02153500  0.58417400  1
  C  57  1  0.60167000  0.03990400  0.56721200  1
  C  58  1  0.60424500  0.07358100  0.56726600  1
  C  59  1  0.62573100  0.08812600  0.58393100  1
  C  60  1  0.65039800  0.10913300  0.63378200  1
  C  61  1  0.65745000  0.14254600  0.63318900  1
  C  62  1  0.69855500  0.13467400  0.60042800  1
  C  63  1  0.69383100  0.10091900  0.60101600  1
  C  64  1  0.72022100  0.14870300  0.58383800  1
  C  65  1  0.73782100  0.12966400  0.56776700  1
  C  66  1  0.73516800  0.09600100  0.56850800  1
  C  67  1  0.71294500  0.08212400  0.58493300  1
  C  68  1  0.62538100  0.09882400  0.64975300  1
  C  69  1  0.60877700  0.12066200  0.66496500  1
  C  70  1  0.61664400  0.15351100  0.66368700  1
  C  71  1  0.64078400  0.16429500  0.64819600  1
  C  84  1  0.66874400  0.08576100  0.61763400  1
  C  85  1  0.68126900  0.15682300  0.61661700  1
  C  88  1  0.65589000  0.01475900  0.61812900  1
  C  95  1  0.14455300  0.60588300  0.65186400  1
  C  96  1  0.14355000  0.63975500  0.65469100  1
  C  97  1  0.18522700  0.64689300  0.62221700  1
  C  98  1  0.18852800  0.61311700  0.61932100  1
  C  99  1  0.21201700  0.60201100  0.60236300  1
  C  100  1  0.23075100  0.62359300  0.58842200  1
  C  101  1  0.22670000  0.65682400  0.59202300  1
  C  102  1  0.20412000  0.66834300  0.60852600  1
  C  103  1  0.12359000  0.65407800  0.67232900  1
  C  104  1  0.10403300  0.63528300  0.68723600  1
  C  105  1  0.10293600  0.60175600  0.68425000  1
  C  106  1  0.12351300  0.58749300  0.66681300  1
  C  107  1  0.14790900  0.57110100  0.61606400  1
  C  108  1  0.15110600  0.53727700  0.61383900  1
  C  109  1  0.19219300  0.53631200  0.64755400  1
  C  110  1  0.19077000  0.57026500  0.64958800  1
  C  111  1  0.21261600  0.51839500  0.66295800  1
  C  112  1  0.23209400  0.53364000  0.68022100  1
  C  113  1  0.23213500  0.56730600  0.68210800  1
  C  114  1  0.21128800  0.58509700  0.66694900  1
  C  115  1  0.12541800  0.58662700  0.60054000  1
  C  116  1  0.10700000  0.56971600  0.58314700  1
  C  117  1  0.11162100  0.53640800  0.58084800  1
  C  118  1  0.13311100  0.52037100  0.59622300  1
  C  131  1  0.16789800  0.59009300  0.63415400  1
  C  132  1  0.17286700  0.51838300  0.62955500  1
  C  135  1  0.16318000  0.66168000  0.63990200  1
  C  142  1  0.68787100  0.55705800  0.13612200  1
  C  143  1  0.68429900  0.52336600  0.13288600  1
  C  144  1  0.64148000  0.53135300  0.10132900  1
  C  145  1  0.64296200  0.56517400  0.10437400  1
  C  146  1  0.62156900  0.58396200  0.08999300  1
  C  147  1  0.60005700  0.57012400  0.07299500  1
  C  148  1  0.60050100  0.53661900  0.06985900  1
  C  149  1  0.62056300  0.51745700  0.08411900  1
  C  150  1  0.70340600  0.50155200  0.14607400  1
  C  151  1  0.72627500  0.51260500  0.16254300  1
  C  152  1  0.73043700  0.54572900  0.16662700  1
  C  153  1  0.71167300  0.56768000  0.15302300  1
  C  154  1  0.68991800  0.59987900  0.10585000  1
  C  155  1  0.69191500  0.63381800  0.10774100  1
  C  156  1  0.65209300  0.63361700  0.14226800  1
  C  157  1  0.64818200  0.59985500  0.14013200  1
  C  158  1  0.63525600  0.65083500  0.16034500  1
  C  159  1  0.61428200  0.63515500  0.17630700  1
  C  160  1  0.60885900  0.60195100  0.17408800  1
  C  161  1  0.62608900  0.58472800  0.15618800  1
  C  162  1  0.70969700  0.58464100  0.08821000  1
  C  163  1  0.73040300  0.60202500  0.07268700  1
  C  164  1  0.73083100  0.63571200  0.07440200  1
  C  165  1  0.71208800  0.65135100  0.09191400  1
  C  178  1  0.66717400  0.58047900  0.12167900  1
  C  179  1  0.67349500  0.65213600  0.12603900  1
  C  182  1  0.66160300  0.50905800  0.11542700  1
  C  189  1  0.93556500  0.36135600  0.40326900  1
  C  190  1  0.96924500  0.36652900  0.40247200  1
  C  191  1  0.97515800  0.32642300  0.36877700  1
  C  192  1  0.94192700  0.31863900  0.36970700  1
  C  193  1  0.93099500  0.29316300  0.35438600  1
  C  194  1  0.95200100  0.27672000  0.33840900  1
  C  195  1  0.98464400  0.28559200  0.33801600  1
  C  196  1  0.99602400  0.31025900  0.35277400  1
  C  197  1  0.98429600  0.38766200  0.41894500  1
  C  198  1  0.96636700  0.40421500  0.43632800  1
  C  199  1  0.93274500  0.40119100  0.43700400  1
  C  200  1  0.91783600  0.37965400  0.42055700  1
  C  201  1  0.89587000  0.35492100  0.37075500  1
  C  202  1  0.86244000  0.34804400  0.37179100  1
  C  203  1  0.87075900  0.30726100  0.40471100  1
  C  204  1  0.90452600  0.31180000  0.40372600  1
  C  205  1  0.85693100  0.28584200  0.42157700  1
  C  206  1  0.87618400  0.26824700  0.43749700  1
  C  207  1  0.90984800  0.27064500  0.43633500  1
  C  208  1  0.92353000  0.29269000  0.41967600  1
  C  209  1  0.90593000  0.37972200  0.35448400  1
  C  210  1  0.88384200  0.39629400  0.33943400  1
  C  211  1  0.85099000  0.38858600  0.34119300  1
  C  212  1  0.84044200  0.36466400  0.35696300  1
  C  225  1  0.91946800  0.33666800  0.38679700  1
  C  226  1  0.84838100  0.32449600  0.38868100  1
  C  229  1  0.99027300  0.35032200  0.38485500  1
  C  236  1  0.89990000  0.81277500  0.89827400  1
  C  237  1  0.86611900  0.81156800  0.90160500  1
  C  238  1  0.85792000  0.85348100  0.86943700  1
  C  239  1  0.89160000  0.85709400  0.86614600  1
  C  240  1  0.90214700  0.88093200  0.84926000  1
  C  241  1  0.88012800  0.89973200  0.83575700  1
  C  242  1  0.84701200  0.89534000  0.83973000  1
  C  243  1  0.83603000  0.87239400  0.85616400  1
  C  244  1  0.85242500  0.79165900  0.91955500  1
  C  245  1  0.87179200  0.77253000  0.93436200  1
  C  246  1  0.90524100  0.77158200  0.93083200  1
  C  247  1  0.91885600  0.79199800  0.91301600  1
  C  248  1  0.93371200  0.81669000  0.86200100  1
  C  249  1  0.96740900  0.82029800  0.85913700  1
  C  250  1  0.96907500  0.86079100  0.89322400  1
  C  251  1  0.93520300  0.85907900  0.89582000  1
  C  252  1  0.98733700  0.88063500  0.90880900  1
  C  253  1  0.97253400  0.89895500  0.92698400  1
  C  254  1  0.93893100  0.89865400  0.92951300  1
  C  255  1  0.92077700  0.87868600  0.91395000  1
  C  256  1  0.91795100  0.79397500  0.84681100  1
  C  257  1  0.93453800  0.77561200  0.82921200  1
  C  258  1  0.96768000  0.78070100  0.82622400  1
  C  259  1  0.98393800  0.80252300  0.84119500  1
  C  272  1  0.91509200  0.83638100  0.88047400  1
  C  273  1  0.98657900  0.84213500  0.87459600  1
  C  276  1  0.84370200  0.83108800  0.88715100  1
  C  283  1  0.44302000  0.31619700  0.86521000  1
  C  284  1  0.47626800  0.31685500  0.87108900  1
  C  285  1  0.46730700  0.35869200  0.90318100  1
  C  286  1  0.43407400  0.36015100  0.89750100  1
  C  287  1  0.41527400  0.38275300  0.91077300  1
  C  288  1  0.42850500  0.40272700  0.92908000  1
  C  289  1  0.46115300  0.39906900  0.93497300  1
  C  290  1  0.48041800  0.37774100  0.92190800  1
  C  291  1  0.49821500  0.29651900  0.85913200  1
  C  292  1  0.48766000  0.27499900  0.84148700  1
  C  293  1  0.45498900  0.27347500  0.83500800  1
  C  294  1  0.43288800  0.29374400  0.84713700  1
  C  295  1  0.39606800  0.31619500  0.89176000  1
  C  296  1  0.36261400  0.31723400  0.88664500  1
  C  297  1  0.37098900  0.35805800  0.85376600  1
  C  298  1  0.40437400  0.35950100  0.85892000  1
  C  299  1  0.35759000  0.37621500  0.83466700  1
  C  300  1  0.37675700  0.39653200  0.82065700  1
  C  301  1  0.40952700  0.40041500  0.82611200  1
  C  302  1  0.42301300  0.38139000  0.84487600  1
  C  303  1  0.40667100  0.29339800  0.90942400  1
  C  304  1  0.38489500  0.27305700  0.92180900  1
  C  305  1  0.35194900  0.27525400  0.91629300  1
  C  306  1  0.34090000  0.29721000  0.89913500  1
  C  319  1  0.41939100  0.33812000  0.87834000  1
  C  320  1  0.34861000  0.33777200  0.86762700  1
  C  323  1  0.48981600  0.33749600  0.89024300  1
  C  330  1  0.39973900  0.86174100  0.35479100  1
  C  331  1  0.36592400  0.86265600  0.35158800  1
  C  332  1  0.35830300  0.82065600  0.38375800  1
  C  333  1  0.39203800  0.81730500  0.38689700  1
  C  334  1  0.40290700  0.79351700  0.40370500  1
  C  335  1  0.38113100  0.77448700  0.41723700  1
  C  336  1  0.34794800  0.77868500  0.41347500  1
  C  337  1  0.33665800  0.80158200  0.39713000  1
  C  338  1  0.35192000  0.88252400  0.33375300  1
  C  339  1  0.37099100  0.90202000  0.31900300  1
  C  340  1  0.40443900  0.90333300  0.32246000  1
  C  341  1  0.41838500  0.88286000  0.34009800  1
  C  342  1  0.43384100  0.85802500  0.39093200  1
  C  343  1  0.46760000  0.85475400  0.39361200  1
  C  344  1  0.46938100  0.81437600  0.35945100  1
  C  345  1  0.43546600  0.81571100  0.35704800  1
  C  346  1  0.48770400  0.79461900  0.34383800  1
  C  347  1  0.47290800  0.77586200  0.32591600  1
  C  348  1  0.43927800  0.77569900  0.32364400  1
  C  349  1  0.42107100  0.79574000  0.33912900  1
  C  350  1  0.41797900  0.88045700  0.40630500  1
  C  351  1  0.43452000  0.89881800  0.42393000  1
  C  352  1  0.46773000  0.89399500  0.42676100  1
  C  353  1  0.48409600  0.87252400  0.41157300  1
  C  366  1  0.41526400  0.83822700  0.37249200  1
  C  367  1  0.48686600  0.83322900  0.37797400  1
  C  370  1  0.34377300  0.84292200  0.36610600  1
  C  377  1  0.05988900  0.05780700  0.03373900  1
  C  378  1  0.05887200  0.05420100  0.00834800  1
  C  380  1  0.02124700  0.00995300  0.01042200  1
  C  381  1  0.02219900  0.01200000  0.03630900  1
  C  382  1  0.04098600  0.03638500  0.04747600  1
  C  384  1  0.00043100  0.98915900  0.99639700  1
  C  385  1  0.99713600  0.98941100  0.97057200  1
  C  386  1  0.97276900  0.97045500  0.95955300  1
  C  387  1  0.95267100  0.95020100  0.97331900  1
  C  388  1  0.95747100  0.95008100  0.99860400  1
  C  399  1  0.92554600  0.93557000  0.96369600  1
  C  400  1  0.07424700  0.08486900  0.04372300  1
  C  403  1  0.79199000  0.10310300  0.52922100  1
  C  404  1  0.79303200  0.10945200  0.50415300  1
  C  406  1  0.83387700  0.15046500  0.50870000  1
  C  407  1  0.83315700  0.14540700  0.53434900  1
  C  408  1  0.81273700  0.12126400  0.54408300  1
  C  410  1  0.85546200  0.17196600  0.49598700  1
  C  411  1  0.86025800  0.17290200  0.47031400  1
  C  412  1  0.88449000  0.19319700  0.46055500  1
  C  413  1  0.90299700  0.21363000  0.47542300  1
  C  414  1  0.89692900  0.21235200  0.50052600  1
  C  425  1  0.92889200  0.23121900  0.46662800  1
  C  426  1  0.77436400  0.07719300  0.53793800  1
  C  429  1  0.28720300  0.55589900  0.72466800  1
  C  430  1  0.28992300  0.55423300  0.75012300  1
  C  432  1  0.32835100  0.51071600  0.74855500  1
  C  433  1  0.32587300  0.51082400  0.72271200  1
  C  434  1  0.30582800  0.53391600  0.71119700  1
  C  436  1  0.35058800  0.49166200  0.76266600  1
  C  437  1  0.35040100  0.48873800  0.78848700  1
  C  438  1  0.37590500  0.47215900  0.80019000  1
  C  439  1  0.40072000  0.45719200  0.78692300  1
  C  440  1  0.39959900  0.46045400  0.76149800  1
  C  451  1  0.42729500  0.44309900  0.79797600  1
  C  452  1  0.27192900  0.58221500  0.71427100  1
  C  455  1  0.55529600  0.61489100  0.21661000  1
  C  456  1  0.55200300  0.61546000  0.24204700  1
  C  458  1  0.51970100  0.66373900  0.24140100  1
  C  459  1  0.52300200  0.66475000  0.21561100  1
  C  460  1  0.54020500  0.63987900  0.20362700  1
  C  462  1  0.49960500  0.68476700  0.25575000  1
  C  463  1  0.49815300  0.68546800  0.28164200  1
  C  464  1  0.47405700  0.70420500  0.29321500  1
  C  465  1  0.45242300  0.72332200  0.27983400  1
  C  466  1  0.45539200  0.72241500  0.25438500  1
  C  477  1  0.42553100  0.73764000  0.29012800  1
  C  478  1  0.56807100  0.58782700  0.20539800  1
  C  481  1  0.38176900  0.72050400  0.46778900  1
  C  482  1  0.37904700  0.72147400  0.49332000  1
  C  484  1  0.35518000  0.66885200  0.49513000  1
  C  485  1  0.35925300  0.66545300  0.46968300  1
  C  486  1  0.37258500  0.69141800  0.45639600  1
  C  488  1  0.33504800  0.64865000  0.50954200  1
  C  489  1  0.33904700  0.64379000  0.53485500  1
  C  490  1  0.31318700  0.63058500  0.54834100  1
  C  491  1  0.28360700  0.62238800  0.53725800  1
  C  492  1  0.28197700  0.62592300  0.51179900  1
  C  503  1  0.25506200  0.62018200  0.55046400  1
  C  504  1  0.38381400  0.74927300  0.45490500  1
  C  507  1  0.88325100  0.45131600  0.28938500  1
  C  508  1  0.88138400  0.45040400  0.26379600  1
  C  510  1  0.85458100  0.50159200  0.26168900  1
  C  511  1  0.85765300  0.50498700  0.28722700  1
  C  512  1  0.87206500  0.47974200  0.30068900  1
  C  514  1  0.83406200  0.52097300  0.24688500  1
  C  515  1  0.83853200  0.52599700  0.22162400  1
  C  516  1  0.81268400  0.53858000  0.20777400  1
  C  517  1  0.78263400  0.54604800  0.21841400  1
  C  518  1  0.78046800  0.54235100  0.24384400  1
  C  529  1  0.75442600  0.54782400  0.20476000  1
  C  530  1  0.88702700  0.42255000  0.30214000  1
  C  533  1  0.45706700  0.22151600  0.78329100  1
  C  534  1  0.46138100  0.22333800  0.75791700  1
  C  536  1  0.48238700  0.16953000  0.75568300  1
  C  537  1  0.47683900  0.16549000  0.78091300  1
  C  538  1  0.46411500  0.19163100  0.79434100  1
  C  540  1  0.50212500  0.14878300  0.74140000  1
  C  541  1  0.49902900  0.14492400  0.71591200  1
  C  542  1  0.52463400  0.13052600  0.70284700  1
  C  543  1  0.55314800  0.12019900  0.71451400  1
  C  544  1  0.55371200  0.12276900  0.74007000  1
  C  555  1  0.58208700  0.11629700  0.70199500  1
  C  556  1  0.45568000  0.24984300  0.79673100  1
  C  559  1  0.05093300  0.55864500  0.54162800  1
  C  560  1  0.04597700  0.55918500  0.51634300  1
  C  562  1  0.01186700  0.51210100  0.51711200  1
  C  563  1  0.01690500  0.50991500  0.54271200  1
  C  564  1  0.03583700  0.53362800  0.55458000  1
  C  566  1  0.99029200  0.49220400  0.50297600  1
  C  567  1  0.98573900  0.49409600  0.47730800  1
  C  568  1  0.96104600  0.47559100  0.46625500  1
  C  569  1  0.94197500  0.45400400  0.47972600  1
  C  570  1  0.94771900  0.45261900  0.50487800  1
  C  581  1  0.91561800  0.43813500  0.46986800  1
  C  582  1  0.06500800  0.58503500  0.55291000  1
  C  585  1  0.78514900  0.61314400  0.03041300  1
  C  586  1  0.78743700  0.61609600  0.00502100  1
  C  588  1  0.82662800  0.65891500  0.00748300  1
  C  589  1  0.82449700  0.65752700  0.03334300  1
  C  590  1  0.80433300  0.63411100  0.04434400  1
  C  592  1  0.84873100  0.67858800  0.99367900  1
  C  593  1  0.85065100  0.67989200  0.96780100  1
  C  594  1  0.87581700  0.69768300  0.95672700  1
  C  595  1  0.89809000  0.71544200  0.97056500  1
  C  596  1  0.89495800  0.71376100  0.99596400  1
  C  607  1  0.92429600  0.73098700  0.96023800  1
  C  608  1  0.76940000  0.58676800  0.04025300  1
  C  611  1  0.28345100  0.06247600  0.22385400  1
  C  612  1  0.28786600  0.06139500  0.24918400  1
  C  614  1  0.32435900  0.01630800  0.24684900  1
  C  615  1  0.32012200  0.01583400  0.22113600  1
  C  616  1  0.30022000  0.03939700  0.21003800  1
  C  618  1  0.34658900  0.99659100  0.26042800  1
  C  619  1  0.34836000  0.99478600  0.28627700  1
  C  620  1  0.37375700  0.97718100  0.29721800  1
  C  621  1  0.39638300  0.96006600  0.28323600  1
  C  622  1  0.39341100  0.96233000  0.25784300  1
  C  633  1  0.42281600  0.94474500  0.29343800  1
  C  634  1  0.26797600  0.08880100  0.21363200  1
  C  637  1  0.38477200  0.21700000  0.97106500  1
  C  638  1  0.38110200  0.21664400  0.99652900  1
  C  640  1  0.36112100  0.16235800  0.99649100  1
  C  641  1  0.36604400  0.16052800  0.97104300  1
  C  642  1  0.37795000  0.18796600  0.95871100  1
  C  644  1  0.34208100  0.14015300  0.01004400  1
  C  645  1  0.34566000  0.13463400  0.03531300  1
  C  646  1  0.32036500  0.11925700  0.04805800  1
  C  647  1  0.29160300  0.10965600  0.03633500  1
  C  648  1  0.29078400  0.11351100  0.01086600  1
  C  659  1  0.26253400  0.10653800  0.04889600  1
  C  660  1  0.38539600  0.24639100  0.95897200  1
  C  663  1  0.87996500  0.95364500  0.78512700  1
  C  664  1  0.87680100  0.95258900  0.75962900  1
  C  666  1  0.85383700  0.00560800  0.75788400  1
  C  667  1  0.85836100  0.00904200  0.78329600  1
  C  668  1  0.87147700  0.98291800  0.79654200  1
  C  670  1  0.83400900  0.02624200  0.74352500  1
  C  671  1  0.83748000  0.03055600  0.71809500  1
  C  672  1  0.81184600  0.04467000  0.70487400  1
  C  673  1  0.78295800  0.05432300  0.71632200  1
  C  674  1  0.78198500  0.05138100  0.74184900  1
  C  685  1  0.75412200  0.05787800  0.70360300  1
  C  686  1  0.88229100  0.92488100  0.79805100  1
  C  689  1  0.55039700  0.06506200  0.52543700  1
  C  690  1  0.55112500  0.05945500  0.50025200  1
  C  692  1  0.51197600  0.01655200  0.50268600  1
  C  693  1  0.51069900  0.02100800  0.52837800  1
  C  694  1  0.52931900  0.04578700  0.53920000  1
  C  696  1  0.49194500  0.99482700  0.48883200  1
  C  697  1  0.49424500  0.98906600  0.46333100  1
  C  698  1  0.47039900  0.97007100  0.45168100  1
  C  699  1  0.44515400  0.95559000  0.46478000  1
  C  700  1  0.44443600  0.96136300  0.48996700  1
  C  711  1  0.41880700  0.94119200  0.45367200  1
  C  712  1  0.56652800  0.09133000  0.53517100  1
  C  715  1  0.04705900  0.61014300  0.72446900  1
  C  716  1  0.04587400  0.61264400  0.74994000  1
  C  718  1  0.01102100  0.65908500  0.74868900  1
  C  719  1  0.01170700  0.65783900  0.72281000  1
  C  720  1  0.02914900  0.63288000  0.71115600  1
  C  722  1  0.99146100  0.68063300  0.76295600  1
  C  723  1  0.99451200  0.68594800  0.78843700  1
  C  724  1  0.97089900  0.70459900  0.80065300  1
  C  725  1  0.94513600  0.71905400  0.78810300  1
  C  726  1  0.94368100  0.71360300  0.76288400  1
  C  737  1  0.91888300  0.73278200  0.79978800  1
  C  738  1  0.06175000  0.58374400  0.71368000  1
  C  741  1  0.94981400  0.21723500  0.29122500  1
  C  742  1  0.95193900  0.21612100  0.26564900  1
  C  744  1  0.97640100  0.16368500  0.26588500  1
  C  745  1  0.97299200  0.16238600  0.29151200  1
  C  746  1  0.95965800  0.18924000  0.30378800  1
  C  748  1  0.99612500  0.14236200  0.25197800  1
  C  749  1  0.99215200  0.13653100  0.22675900  1
  C  750  1  0.01765100  0.12194900  0.21369000  1
  C  751  1  0.04694700  0.11326700  0.22503600  1
  C  752  1  0.04834500  0.11750800  0.25044800  1
  C  763  1  0.07568400  0.11073600  0.21200600  1
  C  764  1  0.94674400  0.24704700  0.30266400  1
  C  767  1  0.54277400  0.56368600  0.03308400  1
  C  768  1  0.54045700  0.56290300  0.00758700  1
  C  770  1  0.50421600  0.51749000  0.00790900  1
  C  771  1  0.50607900  0.51692600  0.03376700  1
  C  772  1  0.52479700  0.54052400  0.04593100  1
  C  774  1  0.48348600  0.49744900  0.99329800  1
  C  775  1  0.48575200  0.49350100  0.96762700  1
  C  776  1  0.46151800  0.47591500  0.95521000  1
  C  777  1  0.43590300  0.46109800  0.96769800  1
  C  778  1  0.43500800  0.46542300  0.99304600  1
  C  789  1  0.41000300  0.44680100  0.95587000  1
  C  790  1  0.55811200  0.58932200  0.04444400  1
  C  793  1  0.19232400  0.52094500  0.13303200  1
  C  794  1  0.19135400  0.55508100  0.13308600  1
  C  795  1  0.14484300  0.55551500  0.16180600  1
  C  796  1  0.14466000  0.52141300  0.16320600  1
  C  797  1  0.12107900  0.50704200  0.17866600  1
  C  798  1  0.09921400  0.52588900  0.19233700  1
  C  799  1  0.09974000  0.55949500  0.18956600  1
  C  800  1  0.12243100  0.57416700  0.17474600  1
  C  801  1  0.21340300  0.57332100  0.11947200  1
  C  802  1  0.23661600  0.55815800  0.10541500  1
  C  803  1  0.23804000  0.52442600  0.10413300  1
  C  804  1  0.21637400  0.50604600  0.11830300  1
  C  805  1  0.18847100  0.48254400  0.16639100  1
  C  806  1  0.18763500  0.44846300  0.16687200  1
  C  807  1  0.14957900  0.44766600  0.13121100  1
  C  808  1  0.14889800  0.48174500  0.13071900  1
  C  809  1  0.13200800  0.42980300  0.11389700  1
  C  810  1  0.11349300  0.44519800  0.09612200  1
  C  811  1  0.11140200  0.47890200  0.09565200  1
  C  812  1  0.12934000  0.49668000  0.11280000  1
  C  813  1  0.20880800  0.49823700  0.18341900  1
  C  814  1  0.22769400  0.48117700  0.20040600  1
  C  815  1  0.22530500  0.44750500  0.20104600  1
  C  816  1  0.20572800  0.43136800  0.18432500  1
  C  829  1  0.16858000  0.50167000  0.14836800  1
  C  830  1  0.16840100  0.42953900  0.14940300  1
  C  833  1  0.16783000  0.57376200  0.14703500  1
  C  840  1  0.64421500  0.47805800  0.61898900  1
  C  841  1  0.63943500  0.44430300  0.61909600  1
  C  842  1  0.67923400  0.43770400  0.65291400  1
  C  843  1  0.68654600  0.47106700  0.65275400  1
  C  844  1  0.71129100  0.48188000  0.66878600  1
  C  845  1  0.72737900  0.46060000  0.68475600  1
  C  846  1  0.71914500  0.42779900  0.68427300  1
  C  847  1  0.69525400  0.41653000  0.66876600  1
  C  848  1  0.61849700  0.42960300  0.60230700  1
  C  849  1  0.60167000  0.44797200  0.58534500  1
  C  850  1  0.60424500  0.48164900  0.58539900  1
  C  851  1  0.62573100  0.49619400  0.60206400  1
  C  852  1  0.65039800  0.51720100  0.65191500  1
  C  853  1  0.65745000  0.55061400  0.65132200  1
  C  854  1  0.69855500  0.54274200  0.61856100  1
  C  855  1  0.69383100  0.50898700  0.61914900  1
  C  856  1  0.72022100  0.55677100  0.60197100  1
  C  857  1  0.73782100  0.53773200  0.58590000  1
  C  858  1  0.73516800  0.50406900  0.58664100  1
  C  859  1  0.71294500  0.49019200  0.60306600  1
  C  860  1  0.62538100  0.50689200  0.66788600  1
  C  861  1  0.60877700  0.52873000  0.68309800  1
  C  862  1  0.61664400  0.56157900  0.68182000  1
  C  863  1  0.64078400  0.57236300  0.66632900  1
  C  876  1  0.66874400  0.49382900  0.63576700  1
  C  877  1  0.68126900  0.56489100  0.63475000  1
  C  880  1  0.65589000  0.42282700  0.63626200  1
  C  887  1  0.14455300  0.01395120  0.66999700  1
  C  888  1  0.14355000  0.04782320  0.67282400  1
  C  889  1  0.18522700  0.05496120  0.64035000  1
  C  890  1  0.18852800  0.02118520  0.63745400  1
  C  891  1  0.21201700  0.01007920  0.62049600  1
  C  892  1  0.23075100  0.03166120  0.60655500  1
  C  893  1  0.22670000  0.06489220  0.61015600  1
  C  894  1  0.20412000  0.07641120  0.62665900  1
  C  895  1  0.12359000  0.06214620  0.69046200  1
  C  896  1  0.10403300  0.04335120  0.70536900  1
  C  897  1  0.10293600  0.00982423  0.70238300  1
  C  898  1  0.12351300  0.99556100  0.68494600  1
  C  899  1  0.14790900  0.97916900  0.63419700  1
  C  900  1  0.15110600  0.94534500  0.63197200  1
  C  901  1  0.19219300  0.94438000  0.66568700  1
  C  902  1  0.19077000  0.97833300  0.66772100  1
  C  903  1  0.21261600  0.92646300  0.68109100  1
  C  904  1  0.23209400  0.94170800  0.69835400  1
  C  905  1  0.23213500  0.97537400  0.70024100  1
  C  906  1  0.21128800  0.99316500  0.68508200  1
  C  907  1  0.12541800  0.99469500  0.61867300  1
  C  908  1  0.10700000  0.97778400  0.60128000  1
  C  909  1  0.11162100  0.94447600  0.59898100  1
  C  910  1  0.13311100  0.92843900  0.61435600  1
  C  923  1  0.16789800  0.99816100  0.65228700  1
  C  924  1  0.17286700  0.92645100  0.64768800  1
  C  927  1  0.16318000  0.06974820  0.65803500  1
  C  934  1  0.68787100  0.96512600  0.15425500  1
  C  935  1  0.68429900  0.93143400  0.15101900  1
  C  936  1  0.64148000  0.93942100  0.11946200  1
  C  937  1  0.64296200  0.97324200  0.12250700  1
  C  938  1  0.62156900  0.99203000  0.10812600  1
  C  939  1  0.60005700  0.97819200  0.09112800  1
  C  940  1  0.60050100  0.94468700  0.08799200  1
  C  941  1  0.62056300  0.92552500  0.10225200  1
  C  942  1  0.70340600  0.90962000  0.16420700  1
  C  943  1  0.72627500  0.92067300  0.18067600  1
  C  944  1  0.73043700  0.95379700  0.18476000  1
  C  945  1  0.71167300  0.97574800  0.17115600  1
  C  946  1  0.68991800  0.00794723  0.12398300  1
  C  947  1  0.69191500  0.04188620  0.12587400  1
  C  948  1  0.65209300  0.04168520  0.16040100  1
  C  949  1  0.64818200  0.00792323  0.15826500  1
  C  950  1  0.63525600  0.05890320  0.17847800  1
  C  951  1  0.61428200  0.04322320  0.19444000  1
  C  952  1  0.60885900  0.01001920  0.19222100  1
  C  953  1  0.62608900  0.99279600  0.17432100  1
  C  954  1  0.70969700  0.99270900  0.10634300  1
  C  955  1  0.73040300  0.01009320  0.09082000  1
  C  956  1  0.73083100  0.04378020  0.09253500  1
  C  957  1  0.71208800  0.05941920  0.11004700  1
  C  970  1  0.66717400  0.98854700  0.13981200  1
  C  971  1  0.67349500  0.06020420  0.14417200  1
  C  974  1  0.66160300  0.91712600  0.13356000  1
  C  981  1  0.93556500  0.76942400  0.42140200  1
  C  982  1  0.96924500  0.77459700  0.42060500  1
  C  983  1  0.97515800  0.73449100  0.38691000  1
  C  984  1  0.94192700  0.72670700  0.38784000  1
  C  985  1  0.93099500  0.70123100  0.37251900  1
  C  986  1  0.95200100  0.68478800  0.35654200  1
  C  987  1  0.98464400  0.69366000  0.35614900  1
  C  988  1  0.99602400  0.71832700  0.37090700  1
  C  989  1  0.98429600  0.79573000  0.43707800  1
  C  990  1  0.96636700  0.81228300  0.45446100  1
  C  991  1  0.93274500  0.80925900  0.45513700  1
  C  992  1  0.91783600  0.78772200  0.43869000  1
  C  993  1  0.89587000  0.76298900  0.38888800  1
  C  994  1  0.86244000  0.75611200  0.38992400  1
  C  995  1  0.87075900  0.71532900  0.42284400  1
  C  996  1  0.90452600  0.71986800  0.42185900  1
  C  997  1  0.85693100  0.69391000  0.43971000  1
  C  998  1  0.87618400  0.67631500  0.45563000  1
  C  999  1  0.90984800  0.67871300  0.45446800  1
  C  1000  1  0.92353000  0.70075800  0.43780900  1
  C  1001  1  0.90593000  0.78779000  0.37261700  1
  C  1002  1  0.88384200  0.80436200  0.35756700  1
  C  1003  1  0.85099000  0.79665400  0.35932600  1
  C  1004  1  0.84044200  0.77273200  0.37509600  1
  C  1017  1  0.91946800  0.74473600  0.40493000  1
  C  1018  1  0.84838100  0.73256400  0.40681400  1
  C  1021  1  0.99027300  0.75839000  0.40298800  1
  C  1028  1  0.89990000  0.22084300  0.91640700  1
  C  1029  1  0.86611900  0.21963600  0.91973800  1
  C  1030  1  0.85792000  0.26154900  0.88757000  1
  C  1031  1  0.89160000  0.26516200  0.88427900  1
  C  1032  1  0.90214700  0.28900000  0.86739300  1
  C  1033  1  0.88012800  0.30780000  0.85389000  1
  C  1034  1  0.84701200  0.30340800  0.85786300  1
  C  1035  1  0.83603000  0.28046200  0.87429700  1
  C  1036  1  0.85242500  0.19972700  0.93768800  1
  C  1037  1  0.87179200  0.18059800  0.95249500  1
  C  1038  1  0.90524100  0.17965000  0.94896500  1
  C  1039  1  0.91885600  0.20006600  0.93114900  1
  C  1040  1  0.93371200  0.22475800  0.88013400  1
  C  1041  1  0.96740900  0.22836600  0.87727000  1
  C  1042  1  0.96907500  0.26885900  0.91135700  1
  C  1043  1  0.93520300  0.26714700  0.91395300  1
  C  1044  1  0.98733700  0.28870300  0.92694200  1
  C  1045  1  0.97253400  0.30702300  0.94511700  1
  C  1046  1  0.93893100  0.30672200  0.94764600  1
  C  1047  1  0.92077700  0.28675400  0.93208300  1
  C  1048  1  0.91795100  0.20204300  0.86494400  1
  C  1049  1  0.93453800  0.18368000  0.84734500  1
  C  1050  1  0.96768000  0.18876900  0.84435700  1
  C  1051  1  0.98393800  0.21059100  0.85932800  1
  C  1064  1  0.91509200  0.24444900  0.89860700  1
  C  1065  1  0.98657900  0.25020300  0.89272900  1
  C  1068  1  0.84370200  0.23915600  0.90528400  1
  C  1075  1  0.44302000  0.72426500  0.88334300  1
  C  1076  1  0.47626800  0.72492300  0.88922200  1
  C  1077  1  0.46730700  0.76676000  0.92131400  1
  C  1078  1  0.43407400  0.76821900  0.91563400  1
  C  1079  1  0.41527400  0.79082100  0.92890600  1
  C  1080  1  0.42850500  0.81079500  0.94721300  1
  C  1081  1  0.46115300  0.80713700  0.95310600  1
  C  1082  1  0.48041800  0.78580900  0.94004100  1
  C  1083  1  0.49821500  0.70458700  0.87726500  1
  C  1084  1  0.48766000  0.68306700  0.85962000  1
  C  1085  1  0.45498900  0.68154300  0.85314100  1
  C  1086  1  0.43288800  0.70181200  0.86527000  1
  C  1087  1  0.39606800  0.72426300  0.90989300  1
  C  1088  1  0.36261400  0.72530200  0.90477800  1
  C  1089  1  0.37098900  0.76612600  0.87189900  1
  C  1090  1  0.40437400  0.76756900  0.87705300  1
  C  1091  1  0.35759000  0.78428300  0.85280000  1
  C  1092  1  0.37675700  0.80460000  0.83879000  1
  C  1093  1  0.40952700  0.80848300  0.84424500  1
  C  1094  1  0.42301300  0.78945800  0.86300900  1
  C  1095  1  0.40667100  0.70146600  0.92755700  1
  C  1096  1  0.38489500  0.68112500  0.93994200  1
  C  1097  1  0.35194900  0.68332200  0.93442600  1
  C  1098  1  0.34090000  0.70527800  0.91726800  1
  C  1111  1  0.41939100  0.74618800  0.89647300  1
  C  1112  1  0.34861000  0.74584000  0.88576000  1
  C  1115  1  0.48981600  0.74556400  0.90837600  1
  C  1122  1  0.39973900  0.26980900  0.37292400  1
  C  1123  1  0.36592400  0.27072400  0.36972100  1
  C  1124  1  0.35830300  0.22872400  0.40189100  1
  C  1125  1  0.39203800  0.22537300  0.40503000  1
  C  1126  1  0.40290700  0.20158500  0.42183800  1
  C  1127  1  0.38113100  0.18255500  0.43537000  1
  C  1128  1  0.34794800  0.18675300  0.43160800  1
  C  1129  1  0.33665800  0.20965000  0.41526300  1
  C  1130  1  0.35192000  0.29059200  0.35188600  1
  C  1131  1  0.37099100  0.31008800  0.33713600  1
  C  1132  1  0.40443900  0.31140100  0.34059300  1
  C  1133  1  0.41838500  0.29092800  0.35823100  1
  C  1134  1  0.43384100  0.26609300  0.40906500  1
  C  1135  1  0.46760000  0.26282200  0.41174500  1
  C  1136  1  0.46938100  0.22244400  0.37758400  1
  C  1137  1  0.43546600  0.22377900  0.37518100  1
  C  1138  1  0.48770400  0.20268700  0.36197100  1
  C  1139  1  0.47290800  0.18393000  0.34404900  1
  C  1140  1  0.43927800  0.18376700  0.34177700  1
  C  1141  1  0.42107100  0.20380800  0.35726200  1
  C  1142  1  0.41797900  0.28852500  0.42443800  1
  C  1143  1  0.43452000  0.30688600  0.44206300  1
  C  1144  1  0.46773000  0.30206300  0.44489400  1
  C  1145  1  0.48409600  0.28059200  0.42970600  1
  C  1158  1  0.41526400  0.24629500  0.39062500  1
  C  1159  1  0.48686600  0.24129700  0.39610700  1
  C  1162  1  0.34377300  0.25099000  0.38423900  1
  C  1169  1  0.05988900  0.46587500  0.05187200  1
  C  1170  1  0.05887200  0.46226900  0.02648100  1
  C  1172  1  0.02124700  0.41802100  0.02855500  1
  C  1173  1  0.02219900  0.42006800  0.05444200  1
  C  1174  1  0.04098600  0.44445300  0.06560900  1
  C  1176  1  0.00043100  0.39722700  0.01453000  1
  C  1177  1  0.99713600  0.39747900  0.98870500  1
  C  1178  1  0.97276900  0.37852300  0.97768600  1
  C  1179  1  0.95267100  0.35826900  0.99145200  1
  C  1180  1  0.95747100  0.35814900  0.01673700  1
  C  1191  1  0.92554600  0.34363800  0.98182900  1
  C  1192  1  0.07424700  0.49293700  0.06185600  1
  C  1195  1  0.79199000  0.51117100  0.54735400  1
  C  1196  1  0.79303200  0.51752000  0.52228600  1
  C  1198  1  0.83387700  0.55853300  0.52683300  1
  C  1199  1  0.83315700  0.55347500  0.55248200  1
  C  1200  1  0.81273700  0.52933200  0.56221600  1
  C  1202  1  0.85546200  0.58003400  0.51412000  1
  C  1203  1  0.86025800  0.58097000  0.48844700  1
  C  1204  1  0.88449000  0.60126500  0.47868800  1
  C  1205  1  0.90299700  0.62169800  0.49355600  1
  C  1206  1  0.89692900  0.62042000  0.51865900  1
  C  1217  1  0.92889200  0.63928700  0.48476100  1
  C  1218  1  0.77436400  0.48526100  0.55607100  1
  C  1221  1  0.28720300  0.96396700  0.74280100  1
  C  1222  1  0.28992300  0.96230100  0.76825600  1
  C  1224  1  0.32835100  0.91878400  0.76668800  1
  C  1225  1  0.32587300  0.91889200  0.74084500  1
  C  1226  1  0.30582800  0.94198400  0.72933000  1
  C  1228  1  0.35058800  0.89973000  0.78079900  1
  C  1229  1  0.35040100  0.89680600  0.80662000  1
  C  1230  1  0.37590500  0.88022700  0.81832300  1
  C  1231  1  0.40072000  0.86526000  0.80505600  1
  C  1232  1  0.39959900  0.86852200  0.77963100  1
  C  1243  1  0.42729500  0.85116700  0.81610900  1
  C  1244  1  0.27192900  0.99028300  0.73240400  1
  C  1247  1  0.55529600  0.02295920  0.23474300  1
  C  1248  1  0.55200300  0.02352820  0.26018000  1
  C  1250  1  0.51970100  0.07180720  0.25953400  1
  C  1251  1  0.52300200  0.07281820  0.23374400  1
  C  1252  1  0.54020500  0.04794720  0.22176000  1
  C  1254  1  0.49960500  0.09283520  0.27388300  1
  C  1255  1  0.49815300  0.09353620  0.29977500  1
  C  1256  1  0.47405700  0.11227300  0.31134800  1
  C  1257  1  0.45242300  0.13139000  0.29796700  1
  C  1258  1  0.45539200  0.13048300  0.27251800  1
  C  1269  1  0.42553100  0.14570800  0.30826100  1
  C  1270  1  0.56807100  0.99589500  0.22353100  1
  C  1273  1  0.38176900  0.12857200  0.48592200  1
  C  1274  1  0.37904700  0.12954200  0.51145300  1
  C  1276  1  0.35518000  0.07692020  0.51326300  1
  C  1277  1  0.35925300  0.07352120  0.48781600  1
  C  1278  1  0.37258500  0.09948620  0.47452900  1
  C  1280  1  0.33504800  0.05671820  0.52767500  1
  C  1281  1  0.33904700  0.05185820  0.55298800  1
  C  1282  1  0.31318700  0.03865320  0.56647400  1
  C  1283  1  0.28360700  0.03045620  0.55539100  1
  C  1284  1  0.28197700  0.03399120  0.52993200  1
  C  1295  1  0.25506200  0.02825020  0.56859700  1
  C  1296  1  0.38381400  0.15734100  0.47303800  1
  C  1299  1  0.88325100  0.85938400  0.30751800  1
  C  1300  1  0.88138400  0.85847200  0.28192900  1
  C  1302  1  0.85458100  0.90966000  0.27982200  1
  C  1303  1  0.85765300  0.91305500  0.30536000  1
  C  1304  1  0.87206500  0.88781000  0.31882200  1
  C  1306  1  0.83406200  0.92904100  0.26501800  1
  C  1307  1  0.83853200  0.93406500  0.23975700  1
  C  1308  1  0.81268400  0.94664800  0.22590700  1
  C  1309  1  0.78263400  0.95411600  0.23654700  1
  C  1310  1  0.78046800  0.95041900  0.26197700  1
  C  1321  1  0.75442600  0.95589200  0.22289300  1
  C  1322  1  0.88702700  0.83061800  0.32027300  1
  C  1325  1  0.45706700  0.62958400  0.80142400  1
  C  1326  1  0.46138100  0.63140600  0.77605000  1
  C  1328  1  0.48238700  0.57759800  0.77381600  1
  C  1329  1  0.47683900  0.57355800  0.79904600  1
  C  1330  1  0.46411500  0.59969900  0.81247400  1
  C  1332  1  0.50212500  0.55685100  0.75953300  1
  C  1333  1  0.49902900  0.55299200  0.73404500  1
  C  1334  1  0.52463400  0.53859400  0.72098000  1
  C  1335  1  0.55314800  0.52826700  0.73264700  1
  C  1336  1  0.55371200  0.53083700  0.75820300  1
  C  1347  1  0.58208700  0.52436500  0.72012800  1
  C  1348  1  0.45568000  0.65791100  0.81486400  1
  C  1351  1  0.05093300  0.96671300  0.55976100  1
  C  1352  1  0.04597700  0.96725300  0.53447600  1
  C  1354  1  0.01186700  0.92016900  0.53524500  1
  C  1355  1  0.01690500  0.91798300  0.56084500  1
  C  1356  1  0.03583700  0.94169600  0.57271300  1
  C  1358  1  0.99029200  0.90027200  0.52110900  1
  C  1359  1  0.98573900  0.90216400  0.49544100  1
  C  1360  1  0.96104600  0.88365900  0.48438800  1
  C  1361  1  0.94197500  0.86207200  0.49785900  1
  C  1362  1  0.94771900  0.86068700  0.52301100  1
  C  1373  1  0.91561800  0.84620300  0.48800100  1
  C  1374  1  0.06500800  0.99310300  0.57104300  1
  C  1377  1  0.78514900  0.02121220  0.04854600  1
  C  1378  1  0.78743700  0.02416420  0.02315400  1
  C  1380  1  0.82662800  0.06698320  0.02561600  1
  C  1381  1  0.82449700  0.06559520  0.05147600  1
  C  1382  1  0.80433300  0.04217920  0.06247700  1
  C  1384  1  0.84873100  0.08665620  0.01181200  1
  C  1385  1  0.85065100  0.08796020  0.98593400  1
  C  1386  1  0.87581700  0.10575100  0.97486000  1
  C  1387  1  0.89809000  0.12351000  0.98869800  1
  C  1388  1  0.89495800  0.12182900  0.01409700  1
  C  1399  1  0.92429600  0.13905500  0.97837100  1
  C  1400  1  0.76940000  0.99483600  0.05838600  1
  C  1403  1  0.28345100  0.47054400  0.24198700  1
  C  1404  1  0.28786600  0.46946300  0.26731700  1
  C  1406  1  0.32435900  0.42437600  0.26498200  1
  C  1407  1  0.32012200  0.42390200  0.23926900  1
  C  1408  1  0.30022000  0.44746500  0.22817100  1
  C  1410  1  0.34658900  0.40465900  0.27856100  1
  C  1411  1  0.34836000  0.40285400  0.30441000  1
  C  1412  1  0.37375700  0.38524900  0.31535100  1
  C  1413  1  0.39638300  0.36813400  0.30136900  1
  C  1414  1  0.39341100  0.37039800  0.27597600  1
  C  1425  1  0.42281600  0.35281300  0.31157100  1
  C  1426  1  0.26797600  0.49686900  0.23176500  1
  C  1429  1  0.38477200  0.62506800  0.98919800  1
  C  1430  1  0.38110200  0.62471200  0.01466200  1
  C  1432  1  0.36112100  0.57042600  0.01462400  1
  C  1433  1  0.36604400  0.56859600  0.98917600  1
  C  1434  1  0.37795000  0.59603400  0.97684400  1
  C  1436  1  0.34208100  0.54822100  0.02817700  1
  C  1437  1  0.34566000  0.54270200  0.05344600  1
  C  1438  1  0.32036500  0.52732500  0.06619100  1
  C  1439  1  0.29160300  0.51772400  0.05446800  1
  C  1440  1  0.29078400  0.52157900  0.02899900  1
  C  1451  1  0.26253400  0.51460600  0.06702900  1
  C  1452  1  0.38539600  0.65445900  0.97710500  1
  C  1455  1  0.87996500  0.36171300  0.80326000  1
  C  1456  1  0.87680100  0.36065700  0.77776200  1
  C  1458  1  0.85383700  0.41367600  0.77601700  1
  C  1459  1  0.85836100  0.41711000  0.80142900  1
  C  1460  1  0.87147700  0.39098600  0.81467500  1
  C  1462  1  0.83400900  0.43431000  0.76165800  1
  C  1463  1  0.83748000  0.43862400  0.73622800  1
  C  1464  1  0.81184600  0.45273800  0.72300700  1
  C  1465  1  0.78295800  0.46239100  0.73445500  1
  C  1466  1  0.78198500  0.45944900  0.75998200  1
  C  1477  1  0.75412200  0.46594600  0.72173600  1
  C  1478  1  0.88229100  0.33294900  0.81618400  1
  C  1481  1  0.55039700  0.47313000  0.54357000  1
  C  1482  1  0.55112500  0.46752300  0.51838500  1
  C  1484  1  0.51197600  0.42462000  0.52081900  1
  C  1485  1  0.51069900  0.42907600  0.54651100  1
  C  1486  1  0.52931900  0.45385500  0.55733300  1
  C  1488  1  0.49194500  0.40289500  0.50696500  1
  C  1489  1  0.49424500  0.39713400  0.48146400  1
  C  1490  1  0.47039900  0.37813900  0.46981400  1
  C  1491  1  0.44515400  0.36365800  0.48291300  1
  C  1492  1  0.44443600  0.36943100  0.50810000  1
  C  1503  1  0.41880700  0.34926000  0.47180500  1
  C  1504  1  0.56652800  0.49939800  0.55330400  1
  C  1507  1  0.04705900  0.01821120  0.74260200  1
  C  1508  1  0.04587400  0.02071220  0.76807300  1
  C  1510  1  0.01102100  0.06715320  0.76682200  1
  C  1511  1  0.01170700  0.06590720  0.74094300  1
  C  1512  1  0.02914900  0.04094820  0.72928900  1
  C  1514  1  0.99146100  0.08870120  0.78108900  1
  C  1515  1  0.99451200  0.09401620  0.80657000  1
  C  1516  1  0.97089900  0.11266700  0.81878600  1
  C  1517  1  0.94513600  0.12712200  0.80623600  1
  C  1518  1  0.94368100  0.12167100  0.78101700  1
  C  1529  1  0.91888300  0.14085000  0.81792100  1
  C  1530  1  0.06175000  0.99181200  0.73181300  1
  C  1533  1  0.94981400  0.62530300  0.30935800  1
  C  1534  1  0.95193900  0.62418900  0.28378200  1
  C  1536  1  0.97640100  0.57175300  0.28401800  1
  C  1537  1  0.97299200  0.57045400  0.30964500  1
  C  1538  1  0.95965800  0.59730800  0.32192100  1
  C  1540  1  0.99612500  0.55043000  0.27011100  1
  C  1541  1  0.99215200  0.54459900  0.24489200  1
  C  1542  1  0.01765100  0.53001700  0.23182300  1
  C  1543  1  0.04694700  0.52133500  0.24316900  1
  C  1544  1  0.04834500  0.52557600  0.26858100  1
  C  1555  1  0.07568400  0.51880400  0.23013900  1
  C  1556  1  0.94674400  0.65511500  0.32079700  1
  C  1559  1  0.54277400  0.97175400  0.05121700  1
  C  1560  1  0.54045700  0.97097100  0.02572000  1
  C  1562  1  0.50421600  0.92555800  0.02604200  1
  C  1563  1  0.50607900  0.92499400  0.05190000  1
  C  1564  1  0.52479700  0.94859200  0.06406400  1
  C  1566  1  0.48348600  0.90551700  0.01143100  1
  C  1567  1  0.48575200  0.90156900  0.98576000  1
  C  1568  1  0.46151800  0.88398300  0.97334300  1
  C  1569  1  0.43590300  0.86916600  0.98583100  1
  C  1570  1  0.43500800  0.87349100  0.01117900  1
  C  1581  1  0.41000300  0.85486900  0.97400300  1
  C  1582  1  0.55811200  0.99739000  0.06257700  1
  N  44  1  0.09445900  0.08717400  0.06127300  1
  N  45  1  0.26192900  0.10527800  0.07229100  1
  N  46  1  0.07590800  0.10718200  0.18872900  1
  N  47  1  0.24617500  0.09004800  0.19713900  1
  N  91  1  0.75179800  0.07671400  0.55392400  1
  N  92  1  0.58793700  0.09227200  0.55203500  1
  N  93  1  0.75283300  0.05991800  0.68025300  1
  N  94  1  0.58335700  0.11354700  0.67869000  1
  N  138  1  0.25045500  0.58352500  0.69753800  1
  N  139  1  0.08414900  0.58282900  0.69756300  1
  N  140  1  0.25468200  0.61536400  0.57359100  1
  N  141  1  0.08704300  0.58644900  0.56923900  1
  N  185  1  0.58931300  0.58553200  0.18853600  1
  N  186  1  0.75421300  0.55362600  0.18175300  1
  N  187  1  0.58090900  0.58937000  0.06025700  1
  N  188  1  0.74800800  0.58539300  0.05703800  1
  N  232  1  0.92929300  0.25389000  0.45072200  1
  N  233  1  0.91444200  0.41718700  0.45268600  1
  N  234  1  0.94458900  0.25025400  0.32590100  1
  N  235  1  0.89078400  0.42148900  0.32537500  1
  N  279  1  0.92307100  0.91535900  0.94616300  1
  N  280  1  0.92476800  0.75346600  0.94418100  1
  N  281  1  0.88791800  0.92398400  0.82106500  1
  N  282  1  0.91764400  0.75510600  0.81589400  1
  N  326  1  0.42851200  0.42025000  0.81373400  1
  N  327  1  0.44721400  0.25044800  0.81924500  1
  N  328  1  0.40944100  0.42341100  0.94055300  1
  N  329  1  0.39332500  0.24898600  0.93643800  1
  N  373  1  0.42343500  0.75817600  0.30747600  1
  N  374  1  0.42364700  0.92199400  0.30927100  1
  N  375  1  0.38921000  0.75027400  0.43186200  1
  N  376  1  0.41751100  0.91886300  0.43756800  1
  N  379  1  0.03990000  0.03143500  0.99826300  1
  N  389  1  0.98015000  0.96924800  0.00859800  1
  N  393  1  0.01714700  0.00870800  0.95580500  1
  N  394  1  0.00420400  0.99074100  0.05102000  1
  N  405  1  0.81346200  0.13195300  0.49538500  1
  N  415  1  0.87432400  0.19204600  0.50931100  1
  N  419  1  0.84176300  0.15358800  0.45447000  1
  N  420  1  0.85282400  0.16353400  0.55018900  1
  N  431  1  0.31008600  0.53274000  0.76048800  1
  N  441  1  0.37552100  0.47729300  0.75091900  1
  N  445  1  0.32518900  0.50196900  0.80250800  1
  N  446  1  0.34331200  0.48851700  0.70852100  1
  N  457  1  0.53453800  0.63886600  0.25285100  1
  N  467  1  0.47783100  0.70342300  0.24389800  1
  N  471  1  0.52006300  0.66755600  0.29585500  1
  N  472  1  0.50912200  0.68986500  0.20186000  1
  N  483  1  0.36528600  0.69674700  0.50544700  1
  N  493  1  0.30666500  0.63945900  0.49949400  1
  N  497  1  0.36797600  0.65325000  0.54625000  1
  N  498  1  0.34881700  0.63707800  0.45797500  1
  N  509  1  0.86663600  0.47440300  0.25148900  1
  N  519  1  0.80517800  0.52939900  0.25649000  1
  N  523  1  0.86799200  0.51740900  0.21061700  1
  N  524  1  0.84536100  0.53267500  0.29884100  1
  N  535  1  0.47443400  0.19831900  0.74567900  1
  N  545  1  0.52935300  0.13745000  0.75199100  1
  N  549  1  0.47123700  0.15641400  0.70398000  1
  N  550  1  0.48522200  0.13623700  0.79233000  1
  N  561  1  0.02696600  0.53686400  0.50571900  1
  N  571  1  0.97064700  0.47143600  0.51498500  1
  N  575  1  0.00529800  0.51410600  0.46273300  1
  N  576  1  0.00290600  0.48488100  0.55647400  1
  N  587  1  0.80773700  0.63783900  0.99513900  1
  N  597  1  0.87133600  0.69573400  0.00597400  1
  N  601  1  0.82804400  0.66376600  0.95299800  1
  N  602  1  0.84247600  0.67869100  0.04813900  1
  N  613  1  0.30782000  0.03935900  0.25910100  1
  N  623  1  0.36958200  0.98020800  0.24795300  1
  N  627  1  0.32520600  0.01008700  0.30109700  1
  N  628  1  0.33565000  0.99248400  0.20663900  1
  N  639  1  0.36881700  0.19041800  0.00772100  1
  N  649  1  0.31481500  0.12918400  0.99929100  1
  N  653  1  0.37345200  0.14574300  0.04745800  1
  N  654  1  0.35782300  0.13214600  0.95837900  1
  N  665  1  0.86333700  0.97751200  0.74754500  1
  N  675  1  0.80638800  0.03696300  0.75390100  1
  N  679  1  0.86568300  0.01978000  0.70633000  1
  N  680  1  0.84866900  0.03764900  0.79504600  1
  N  691  1  0.53222100  0.03642000  0.49038000  1
  N  701  1  0.46689700  0.98041500  0.50037400  1
  N  705  1  0.51962200  0.00229700  0.44949200  1
  N  706  1  0.49124200  0.00120400  0.54319100  1
  N  717  1  0.02815600  0.63606300  0.76053900  1
  N  727  1  0.96592800  0.69486100  0.75190800  1
  N  731  1  0.02055800  0.67271900  0.80154300  1
  N  732  1  0.99544100  0.68116100  0.70874900  1
  N  743  1  0.96569500  0.19061000  0.25449700  1
  N  753  1  0.02406700  0.13241800  0.26231600  1
  N  757  1  0.96370300  0.14648500  0.21490900  1
  N  758  1  0.98386600  0.13508300  0.30438100  1
  N  769  1  0.52159500  0.54076400  0.99654900  1
  N  779  1  0.45792900  0.48312100  0.00427700  1
  N  783  1  0.51182300  0.50674400  0.95455300  1
  N  784  1  0.48964300  0.49316700  0.04728200  1
  N  836  1  0.09445900  0.49524200  0.07940600  1
  N  837  1  0.26192900  0.51334600  0.09042400  1
  N  838  1  0.07590800  0.51525000  0.20686200  1
  N  839  1  0.24617500  0.49811600  0.21527200  1
  N  883  1  0.75179800  0.48478200  0.57205700  1
  N  884  1  0.58793700  0.50034000  0.57016800  1
  N  885  1  0.75283300  0.46798600  0.69838600  1
  N  886  1  0.58335700  0.52161500  0.69682300  1
  N  930  1  0.25045500  0.99159300  0.71567100  1
  N  931  1  0.08414900  0.99089700  0.71569600  1
  N  932  1  0.25468200  0.02343220  0.59172400  1
  N  933  1  0.08704300  0.99451700  0.58737200  1
  N  977  1  0.58931300  0.99360000  0.20666900  1
  N  978  1  0.75421300  0.96169400  0.19988600  1
  N  979  1  0.58090900  0.99743800  0.07839000  1
  N  980  1  0.74800800  0.99346100  0.07517100  1
  N  1024  1  0.92929300  0.66195800  0.46885500  1
  N  1025  1  0.91444200  0.82525500  0.47081900  1
  N  1026  1  0.94458900  0.65832200  0.34403400  1
  N  1027  1  0.89078400  0.82955700  0.34350800  1
  N  1071  1  0.92307100  0.32342700  0.96429600  1
  N  1072  1  0.92476800  0.16153400  0.96231400  1
  N  1073  1  0.88791800  0.33205200  0.83919800  1
  N  1074  1  0.91764400  0.16317400  0.83402700  1
  N  1118  1  0.42851200  0.82831800  0.83186700  1
  N  1119  1  0.44721400  0.65851600  0.83737800  1
  N  1120  1  0.40944100  0.83147900  0.95868600  1
  N  1121  1  0.39332500  0.65705400  0.95457100  1
  N  1165  1  0.42343500  0.16624400  0.32560900  1
  N  1166  1  0.42364700  0.33006200  0.32740400  1
  N  1167  1  0.38921000  0.15834200  0.44999500  1
  N  1168  1  0.41751100  0.32693100  0.45570100  1
  N  1171  1  0.03990000  0.43950300  0.01639600  1
  N  1181  1  0.98015000  0.37731600  0.02673100  1
  N  1185  1  0.01714700  0.41677600  0.97393800  1
  N  1186  1  0.00420400  0.39880900  0.06915300  1
  N  1197  1  0.81346200  0.54002100  0.51351800  1
  N  1207  1  0.87432400  0.60011400  0.52744400  1
  N  1211  1  0.84176300  0.56165600  0.47260300  1
  N  1212  1  0.85282400  0.57160200  0.56832200  1
  N  1223  1  0.31008600  0.94080800  0.77862100  1
  N  1233  1  0.37552100  0.88536100  0.76905200  1
  N  1237  1  0.32518900  0.91003700  0.82064100  1
  N  1238  1  0.34331200  0.89658500  0.72665400  1
  N  1249  1  0.53453800  0.04693420  0.27098400  1
  N  1259  1  0.47783100  0.11149100  0.26203100  1
  N  1263  1  0.52006300  0.07562420  0.31398800  1
  N  1264  1  0.50912200  0.09793320  0.21999300  1
  N  1275  1  0.36528600  0.10481500  0.52358000  1
  N  1285  1  0.30666500  0.04752720  0.51762700  1
  N  1289  1  0.36797600  0.06131820  0.56438300  1
  N  1290  1  0.34881700  0.04514620  0.47610800  1
  N  1301  1  0.86663600  0.88247100  0.26962200  1
  N  1311  1  0.80517800  0.93746700  0.27462300  1
  N  1315  1  0.86799200  0.92547700  0.22875000  1
  N  1316  1  0.84536100  0.94074300  0.31697400  1
  N  1327  1  0.47443400  0.60638700  0.76381200  1
  N  1337  1  0.52935300  0.54551800  0.77012400  1
  N  1341  1  0.47123700  0.56448200  0.72211300  1
  N  1342  1  0.48522200  0.54430500  0.81046300  1
  N  1353  1  0.02696600  0.94493200  0.52385200  1
  N  1363  1  0.97064700  0.87950400  0.53311800  1
  N  1367  1  0.00529800  0.92217400  0.48086600  1
  N  1368  1  0.00290600  0.89294900  0.57460700  1
  N  1379  1  0.80773700  0.04590720  0.01327200  1
  N  1389  1  0.87133600  0.10380200  0.02410700  1
  N  1393  1  0.82804400  0.07183420  0.97113100  1
  N  1394  1  0.84247600  0.08675920  0.06627200  1
  N  1405  1  0.30782000  0.44742700  0.27723400  1
  N  1415  1  0.36958200  0.38827600  0.26608600  1
  N  1419  1  0.32520600  0.41815500  0.31923000  1
  N  1420  1  0.33565000  0.40055200  0.22477200  1
  N  1431  1  0.36881700  0.59848600  0.02585400  1
  N  1441  1  0.31481500  0.53725200  0.01742400  1
  N  1445  1  0.37345200  0.55381100  0.06559100  1
  N  1446  1  0.35782300  0.54021400  0.97651200  1
  N  1457  1  0.86333700  0.38558000  0.76567800  1
  N  1467  1  0.80638800  0.44503100  0.77203400  1
  N  1471  1  0.86568300  0.42784800  0.72446300  1
  N  1472  1  0.84866900  0.44571700  0.81317900  1
  N  1483  1  0.53222100  0.44448800  0.50851300  1
  N  1493  1  0.46689700  0.38848300  0.51850700  1
  N  1497  1  0.51962200  0.41036500  0.46762500  1
  N  1498  1  0.49124200  0.40927200  0.56132400  1
  N  1509  1  0.02815600  0.04413120  0.77867200  1
  N  1519  1  0.96592800  0.10292900  0.77004100  1
  N  1523  1  0.02055800  0.08078720  0.81967600  1
  N  1524  1  0.99544100  0.08922920  0.72688200  1
  N  1535  1  0.96569500  0.59867800  0.27263000  1
  N  1545  1  0.02406700  0.54048600  0.28044900  1
  N  1549  1  0.96370300  0.55455300  0.23304200  1
  N  1550  1  0.98386600  0.54315100  0.32251400  1
  N  1561  1  0.52159500  0.94883200  0.01468200  1
  N  1571  1  0.45792900  0.89118900  0.02241000  1
  N  1575  1  0.51182300  0.91481200  0.97268600  1
  N  1576  1  0.48964300  0.90123500  0.06541500  1
  O  395  1  0.00144400  0.02924200  0.94404900  1
  O  396  1  0.98379700  0.00526700  0.06372600  1
  O  397  1  0.02201600  0.97443300  0.06468300  1
  O  398  1  0.03329400  0.99202800  0.94124400  1
  O  421  1  0.85880100  0.13421100  0.44266500  1
  O  422  1  0.87215600  0.14617600  0.56176700  1
  O  423  1  0.83637100  0.17956800  0.56497300  1
  O  424  1  0.82572600  0.17035400  0.43989300  1
  O  447  1  0.33524900  0.52278500  0.81715000  1
  O  448  1  0.36262100  0.50225200  0.69441100  1
  O  449  1  0.32493500  0.47091500  0.69627900  1
  O  450  1  0.31030000  0.48069400  0.81411100  1
  O  473  1  0.50604300  0.64704500  0.30878900  1
  O  474  1  0.48860900  0.67955100  0.18706900  1
  O  475  1  0.53002000  0.70554200  0.19046400  1
  O  476  1  0.53662600  0.68543400  0.30929100  1
  O  499  1  0.36315200  0.67446400  0.56204200  1
  O  500  1  0.32722700  0.64282500  0.44265300  1
  O  501  1  0.37170400  0.62327300  0.44742900  1
  O  502  1  0.38158400  0.62974500  0.55614700  1
  O  525  1  0.86415800  0.49613600  0.19471400  1
  O  526  1  0.82368800  0.52566800  0.31379200  1
  O  527  1  0.86715600  0.54765400  0.30978600  1
  O  528  1  0.88118400  0.54132600  0.20096700  1
  O  551  1  0.47801300  0.17772800  0.68868300  1
  O  552  1  0.50626800  0.14036500  0.80836300  1
  O  553  1  0.46115000  0.12327500  0.80194000  1
  O  554  1  0.45670200  0.13404200  0.69336300  1
  O  577  1  0.98920700  0.53521700  0.45189900  1
  O  578  1  0.98381300  0.49542600  0.57222200  1
  O  579  1  0.02385400  0.46793600  0.56672800  1
  O  580  1  0.02088500  0.49817700  0.44736700  1
  O  603  1  0.84108600  0.64295900  0.93975300  1
  O  604  1  0.86178200  0.66390700  0.06163100  1
  O  605  1  0.82456600  0.69592900  0.06105600  1
  O  606  1  0.81261500  0.68299100  0.93985300  1
  O  629  1  0.33767600  0.03083100  0.31470600  1
  O  630  1  0.35450800  0.00505200  0.19159200  1
  O  631  1  0.31578200  0.97531800  0.19541200  1
  O  632  1  0.31007400  0.99023700  0.31390300  1
  O  655  1  0.36661100  0.16608700  0.06348100  1
  O  656  1  0.33625800  0.13723300  0.94290500  1
  O  657  1  0.38182400  0.12044000  0.94780100  1
  O  658  1  0.38834100  0.12295100  0.05725100  1
  O  681  1  0.85957400  0.99857800  0.69078500  1
  O  682  1  0.82724000  0.03236600  0.81059300  1
  O  683  1  0.87198600  0.05107500  0.80533300  1
  O  684  1  0.87997500  0.04258000  0.69605100  1
  O  707  1  0.50949700  0.02104200  0.43335400  1
  O  708  1  0.47027400  0.01707700  0.55436300  1
  O  709  1  0.50768900  0.98570700  0.55829400  1
  O  710  1  0.53636200  0.98080800  0.43969700  1
  O  733  1  0.01119000  0.65367000  0.81773800  1
  O  734  1  0.97427400  0.66872000  0.69550700  1
  O  735  1  0.01452100  0.69680000  0.69562800  1
  O  736  1  0.03742300  0.69422400  0.81119200  1
  O  759  1  0.96941600  0.16694200  0.19871400  1
  O  760  1  0.00572700  0.14219000  0.31914500  1
  O  761  1  0.96130300  0.12197900  0.31579800  1
  O  762  1  0.94943500  0.12308700  0.20540500  1
  O  785  1  0.50255500  0.52675100  0.93899700  1
  O  786  1  0.46945600  0.50532500  0.06151200  1
  O  787  1  0.50874600  0.47607900  0.05930400  1
  O  788  1  0.52800400  0.48534400  0.94412700  1
  O  1187  1  0.00144400  0.43731000  0.96218200  1
  O  1188  1  0.98379700  0.41333500  0.08185900  1
  O  1189  1  0.02201600  0.38250100  0.08281600  1
  O  1190  1  0.03329400  0.40009600  0.95937700  1
  O  1213  1  0.85880100  0.54227900  0.46079800  1
  O  1214  1  0.87215600  0.55424400  0.57990000  1
  O  1215  1  0.83637100  0.58763600  0.58310600  1
  O  1216  1  0.82572600  0.57842200  0.45802600  1
  O  1239  1  0.33524900  0.93085300  0.83528300  1
  O  1240  1  0.36262100  0.91032000  0.71254400  1
  O  1241  1  0.32493500  0.87898300  0.71441200  1
  O  1242  1  0.31030000  0.88876200  0.83224400  1
  O  1265  1  0.50604300  0.05511320  0.32692200  1
  O  1266  1  0.48860900  0.08761920  0.20520200  1
  O  1267  1  0.53002000  0.11361000  0.20859700  1
  O  1268  1  0.53662600  0.09350220  0.32742400  1
  O  1291  1  0.36315200  0.08253220  0.58017500  1
  O  1292  1  0.32722700  0.05089320  0.46078600  1
  O  1293  1  0.37170400  0.03134120  0.46556200  1
  O  1294  1  0.38158400  0.03781320  0.57428000  1
  O  1317  1  0.86415800  0.90420400  0.21284700  1
  O  1318  1  0.82368800  0.93373600  0.33192500  1
  O  1319  1  0.86715600  0.95572200  0.32791900  1
  O  1320  1  0.88118400  0.94939400  0.21910000  1
  O  1343  1  0.47801300  0.58579600  0.70681600  1
  O  1344  1  0.50626800  0.54843300  0.82649600  1
  O  1345  1  0.46115000  0.53134300  0.82007300  1
  O  1346  1  0.45670200  0.54211000  0.71149600  1
  O  1369  1  0.98920700  0.94328500  0.47003200  1
  O  1370  1  0.98381300  0.90349400  0.59035500  1
  O  1371  1  0.02385400  0.87600400  0.58486100  1
  O  1372  1  0.02088500  0.90624500  0.46550000  1
  O  1395  1  0.84108600  0.05102720  0.95788600  1
  O  1396  1  0.86178200  0.07197520  0.07976400  1
  O  1397  1  0.82456600  0.10399700  0.07918900  1
  O  1398  1  0.81261500  0.09105920  0.95798600  1
  O  1421  1  0.33767600  0.43889900  0.33283900  1
  O  1422  1  0.35450800  0.41312000  0.20972500  1
  O  1423  1  0.31578200  0.38338600  0.21354500  1
  O  1424  1  0.31007400  0.39830500  0.33203600  1
  O  1447  1  0.36661100  0.57415500  0.08161400  1
  O  1448  1  0.33625800  0.54530100  0.96103800  1
  O  1449  1  0.38182400  0.52850800  0.96593400  1
  O  1450  1  0.38834100  0.53101900  0.07538400  1
  O  1473  1  0.85957400  0.40664600  0.70891800  1
  O  1474  1  0.82724000  0.44043400  0.82872600  1
  O  1475  1  0.87198600  0.45914300  0.82346600  1
  O  1476  1  0.87997500  0.45064800  0.71418400  1
  O  1499  1  0.50949700  0.42911000  0.45148700  1
  O  1500  1  0.47027400  0.42514500  0.57249600  1
  O  1501  1  0.50768900  0.39377500  0.57642700  1
  O  1502  1  0.53636200  0.38887600  0.45783000  1
  O  1525  1  0.01119000  0.06173820  0.83587100  1
  O  1526  1  0.97427400  0.07678820  0.71364000  1
  O  1527  1  0.01452100  0.10486800  0.71376100  1
  O  1528  1  0.03742300  0.10229200  0.82932500  1
  O  1551  1  0.96941600  0.57501000  0.21684700  1
  O  1552  1  0.00572700  0.55025800  0.33727800  1
  O  1553  1  0.96130300  0.53004700  0.33393100  1
  O  1554  1  0.94943500  0.53115500  0.22353800  1
  O  1577  1  0.50255500  0.93481900  0.95713000  1
  O  1578  1  0.46945600  0.91339300  0.07964500  1
  O  1579  1  0.50874600  0.88414700  0.07743700  1
  O  1580  1  0.52800400  0.89341200  0.96226000  1
