# generated using pymatgen
data_H32C55N8
_symmetry_space_group_name_H-M   'P 1'
_cell_length_a   49.49040000
_cell_length_b   49.49040000
_cell_length_c   49.49040000
_cell_angle_alpha   90.00000000
_cell_angle_beta   90.00000000
_cell_angle_gamma   90.00000000
_symmetry_Int_Tables_number   1
_chemical_formula_structural   H32C55N8
_chemical_formula_sum   'H512 C880 N128'
_cell_volume   121216.82148488
_cell_formula_units_Z   16
loop_
 _symmetry_equiv_pos_site_id
 _symmetry_equiv_pos_as_xyz
  1  'x, y, z'
loop_
 _atom_site_type_symbol
 _atom_site_label
 _atom_site_symmetry_multiplicity
 _atom_site_fract_x
 _atom_site_fract_y
 _atom_site_fract_z
 _atom_site_occupancy
  H  25  1  0.06949500  0.01190700  0.91249800  1
  H  26  1  0.04124800  0.97323300  0.91609500  1
  H  27  1  0.97006900  0.92078400  0.96155000  1
  H  28  1  0.94089100  0.91244300  0.99871900  1
  H  29  1  0.96959000  0.98268300  0.03742800  1
  H  30  1  0.04093100  0.04017700  0.98758500  1
  H  31  1  0.04105800  0.95952100  0.01163500  1
  H  32  1  0.06894800  0.98784200  0.08695300  1
  H  33  1  0.04052800  0.02638500  0.08319600  1
  H  34  1  0.96981400  0.01669000  0.96132600  1
  H  35  1  0.96941000  0.07853000  0.03725300  1
  H  36  1  0.94049300  0.08677300  0.99984800  1
  H  39  1  0.99337600  0.96084500  0.93560100  1
  H  40  1  0.01844800  0.94172400  0.95266300  1
  H  42  1  0.99272400  0.03855600  0.06335300  1
  H  43  1  0.01782200  0.05781800  0.04649300  1
  H  47  1  0.08073300  0.06206500  0.96297600  1
  H  48  1  0.93104300  0.95608800  0.05646700  1
  H  49  1  0.93118600  0.04313900  0.94208400  1
  H  51  1  0.08075300  0.93779400  0.03648600  1
  H  76  1  0.42910300  0.98640300  0.41256500  1
  H  77  1  0.45725800  0.02514600  0.41616100  1
  H  78  1  0.52826600  0.07780200  0.46165100  1
  H  79  1  0.55741100  0.08621800  0.49882800  1
  H  80  1  0.52890400  0.01588600  0.53751400  1
  H  81  1  0.45771700  0.95821800  0.48766400  1
  H  82  1  0.45739000  0.03886600  0.51169700  1
  H  83  1  0.42953400  0.01046900  0.58700300  1
  H  84  1  0.45806000  0.97200200  0.58325800  1
  H  85  1  0.52878300  0.98186500  0.46140700  1
  H  86  1  0.52934500  0.92005100  0.53735700  1
  H  87  1  0.55827600  0.91186600  0.49994700  1
  H  90  1  0.50509400  0.03767400  0.43568600  1
  H  91  1  0.47995600  0.05671600  0.45273600  1
  H  93  1  0.50591800  0.95997600  0.56344000  1
  H  94  1  0.48087900  0.94063500  0.54658300  1
  H  98  1  0.41795000  0.93625600  0.46305900  1
  H  99  1  0.56738300  0.04256000  0.55655400  1
  H  100  1  0.56750400  0.95548000  0.44218700  1
  H  102  1  0.41763800  0.06050500  0.53653200  1
  H  127  1  0.24665200  0.80480400  0.16185400  1
  H  128  1  0.28459000  0.77629800  0.16962200  1
  H  129  1  0.33215700  0.70591100  0.22151200  1
  H  130  1  0.33616200  0.67674300  0.25932100  1
  H  131  1  0.26105700  0.70414700  0.28875100  1
  H  132  1  0.21020200  0.77625900  0.23331200  1
  H  133  1  0.28740900  0.77616500  0.26584700  1
  H  134  1  0.25096000  0.80435200  0.33744500  1
  H  135  1  0.21300100  0.77590800  0.32951400  1
  H  136  1  0.23660300  0.70431400  0.21006100  1
  H  137  1  0.16542800  0.70578900  0.27722900  1
  H  138  1  0.16147000  0.67677800  0.23928700  1
  H  141  1  0.29507900  0.72857100  0.19061100  1
  H  142  1  0.31180000  0.75379900  0.20981800  1
  H  144  1  0.20248400  0.72829900  0.30827400  1
  H  145  1  0.18579800  0.75362900  0.28917300  1
  H  149  1  0.19243800  0.81730200  0.20706800  1
  H  150  1  0.29042800  0.67603800  0.31711800  1
  H  151  1  0.20721200  0.67636100  0.18153700  1
  H  153  1  0.30517200  0.81706100  0.29231100  1
  H  178  1  0.25193400  0.19380800  0.66180100  1
  H  179  1  0.21399100  0.22231000  0.66956000  1
  H  180  1  0.16637600  0.29265300  0.72146500  1
  H  181  1  0.16234400  0.32179800  0.75928700  1
  H  182  1  0.23744200  0.29440200  0.78874300  1
  H  183  1  0.28834300  0.22232400  0.73329200  1
  H  184  1  0.21113200  0.22238200  0.76579700  1
  H  185  1  0.24755900  0.19420000  0.83740900  1
  H  186  1  0.28550400  0.22266700  0.82950400  1
  H  187  1  0.26193000  0.29427700  0.71005500  1
  H  188  1  0.33306500  0.29282600  0.77726800  1
  H  189  1  0.33702700  0.32185000  0.73933500  1
  H  192  1  0.20348000  0.27002600  0.69057200  1
  H  193  1  0.18675700  0.24477700  0.70975000  1
  H  195  1  0.29600100  0.27028700  0.80828200  1
  H  196  1  0.31271900  0.24497300  0.78918500  1
  H  200  1  0.30610200  0.18127100  0.70705200  1
  H  201  1  0.20798200  0.32242200  0.81713800  1
  H  202  1  0.29139600  0.32216900  0.68151800  1
  H  204  1  0.19338600  0.18145500  0.79224000  1
  H  229  1  0.75491200  0.17241100  0.83448300  1
  H  230  1  0.71691300  0.20150000  0.82912200  1
  H  231  1  0.66819000  0.27376800  0.78173900  1
  H  232  1  0.66206600  0.30324300  0.74464500  1
  H  233  1  0.73472800  0.27527800  0.70992900  1
  H  234  1  0.78914700  0.20329800  0.76290700  1
  H  235  1  0.71057000  0.20286200  0.73432800  1
  H  236  1  0.74505100  0.17311900  0.66239100  1
  H  237  1  0.78264100  0.20270600  0.66791900  1
  H  238  1  0.76414400  0.27501500  0.78791200  1
  H  239  1  0.83040900  0.27528200  0.71582600  1
  H  240  1  0.83624500  0.30443500  0.75323100  1
  H  243  1  0.70656300  0.25034700  0.80997500  1
  H  244  1  0.68849100  0.22556900  0.79140000  1
  H  246  1  0.79229500  0.25155200  0.68749500  1
  H  247  1  0.81081600  0.22687000  0.70575300  1
  H  251  1  0.80443500  0.15653900  0.79050100  1
  H  252  1  0.70825600  0.31104200  0.68722000  1
  H  253  1  0.79008800  0.31132300  0.81065200  1
  H  255  1  0.69563600  0.15642900  0.70658700  1
  H  280  1  0.74361900  0.82611400  0.33453100  1
  H  281  1  0.78160600  0.79701100  0.32917100  1
  H  282  1  0.83032500  0.72476100  0.28176000  1
  H  283  1  0.83645100  0.69530400  0.24465100  1
  H  284  1  0.76381300  0.72331600  0.20992400  1
  H  285  1  0.70940400  0.79528900  0.26292000  1
  H  286  1  0.78798500  0.79571800  0.23436500  1
  H  287  1  0.75353400  0.82550700  0.16243300  1
  H  288  1  0.71593900  0.79592000  0.16793000  1
  H  289  1  0.73437900  0.72355000  0.28789400  1
  H  290  1  0.66812100  0.72335200  0.21580100  1
  H  291  1  0.66226600  0.69418700  0.25319500  1
  H  294  1  0.79193700  0.74817300  0.30999100  1
  H  295  1  0.81004000  0.77295600  0.29145000  1
  H  297  1  0.70626200  0.74707200  0.18748300  1
  H  298  1  0.68774100  0.77175000  0.20574700  1
  H  302  1  0.69410400  0.84201600  0.29051300  1
  H  303  1  0.79027600  0.68754300  0.18721000  1
  H  304  1  0.70841200  0.68726400  0.31062800  1
  H  306  1  0.80276200  0.84236300  0.20652300  1
  H  331  1  0.57575600  0.49488400  0.41311000  1
  H  332  1  0.54598300  0.45818400  0.42258700  1
  H  333  1  0.47388400  0.41539000  0.47672500  1
  H  334  1  0.44435700  0.41445400  0.51454000  1
  H  335  1  0.47356200  0.49048500  0.53945000  1
  H  336  1  0.54648800  0.53661700  0.48126900  1
  H  337  1  0.54636800  0.46285100  0.51788600  1
  H  338  1  0.57508900  0.50455200  0.58629700  1
  H  339  1  0.54536000  0.54123400  0.57662500  1
  H  340  1  0.47386200  0.50896900  0.45918000  1
  H  341  1  0.47373600  0.58407900  0.52189300  1
  H  342  1  0.44449800  0.58501600  0.48384500  1
  H  345  1  0.49742200  0.45016600  0.44366400  1
  H  346  1  0.52228100  0.43404800  0.46382500  1
  H  348  1  0.49697300  0.54927400  0.55514600  1
  H  349  1  0.52200600  0.56539200  0.53520100  1
  H  353  1  0.59163600  0.54930000  0.45399900  1
  H  354  1  0.44407400  0.46446800  0.56894300  1
  H  355  1  0.44473500  0.53518200  0.42938000  1
  H  357  1  0.59112300  0.45004100  0.54530400  1
  H  382  1  0.92272600  0.50364300  0.91319300  1
  H  383  1  0.95249200  0.54035500  0.92265800  1
  H  384  1  0.02459400  0.58317800  0.97676700  1
  H  385  1  0.05412600  0.58412900  0.01457700  1
  H  386  1  0.02497900  0.50807600  0.03948400  1
  H  387  1  0.95205100  0.46191200  0.98133000  1
  H  388  1  0.95215400  0.53567300  0.01794700  1
  H  389  1  0.92346000  0.49393600  0.08634900  1
  H  390  1  0.95321100  0.45727900  0.07666900  1
  H  391  1  0.02465200  0.48958200  0.95920000  1
  H  392  1  0.02483200  0.41447000  0.02191100  1
  H  393  1  0.05404100  0.41353900  0.98384300  1
  H  396  1  0.00106200  0.54838900  0.94370600  1
  H  397  1  0.97620700  0.56449500  0.96388600  1
  H  399  1  0.00160400  0.44927100  0.05518300  1
  H  400  1  0.97657300  0.43314000  0.03524400  1
  H  404  1  0.90686500  0.44924500  0.95407400  1
  H  405  1  0.05448200  0.53409100  0.06896000  1
  H  406  1  0.05378600  0.46338700  0.92938800  1
  H  408  1  0.90750300  0.54854900  0.04533100  1
  H  415  1  0.83308900  0.80344300  0.13110700  1
  H  420  1  0.83143000  0.87391500  0.17888300  1
  H  425  1  0.89273100  0.82552400  0.06010300  1
  H  426  1  0.86295500  0.80236400  0.09052700  1
  H  427  1  0.91672900  0.86773200  0.04665100  1
  H  428  1  0.91103900  0.93600800  0.09728300  1
  H  437  1  0.66550700  0.19512400  0.63104100  1
  H  442  1  0.66712300  0.12468200  0.67885300  1
  H  447  1  0.60573600  0.17310100  0.56012900  1
  H  448  1  0.63557000  0.19623600  0.59051200  1
  H  449  1  0.58169300  0.13090500  0.54670800  1
  H  450  1  0.58734000  0.06265300  0.59737600  1
  H  459  1  0.42459500  0.55205200  0.38923900  1
  H  464  1  0.37947600  0.59498800  0.44732700  1
  H  469  1  0.38632700  0.57949400  0.30630800  1
  H  470  1  0.41221900  0.55697300  0.34053900  1
  H  471  1  0.35234700  0.61477000  0.29380800  1
  H  472  1  0.31033700  0.65473900  0.35618600  1
  H  481  1  0.07382400  0.44641400  0.88921100  1
  H  486  1  0.11910900  0.40366600  0.94730700  1
  H  491  1  0.11199900  0.41889500  0.80627100  1
  H  492  1  0.08613400  0.44143900  0.84050600  1
  H  493  1  0.14602700  0.38366200  0.79377400  1
  H  494  1  0.18823900  0.34390500  0.85616800  1
  H  503  1  0.66406400  0.80287700  0.36587500  1
  H  508  1  0.66567600  0.87363800  0.31853200  1
  H  513  1  0.60491100  0.82470500  0.43735700  1
  H  514  1  0.63437300  0.80161400  0.40658000  1
  H  515  1  0.58125200  0.86695600  0.45127900  1
  H  516  1  0.58689800  0.93552300  0.40103900  1
  H  525  1  0.83437600  0.19566500  0.86592300  1
  H  530  1  0.83294300  0.12498100  0.81847200  1
  H  535  1  0.89348000  0.17383200  0.93744600  1
  H  536  1  0.86401400  0.19691800  0.90666900  1
  H  537  1  0.91721600  0.13160800  0.95132200  1
  H  538  1  0.91178300  0.06311900  0.90095000  1
  H  547  1  0.07429700  0.55120000  0.10921000  1
  H  552  1  0.11879600  0.59490500  0.05122200  1
  H  557  1  0.11241100  0.57873400  0.19218600  1
  H  558  1  0.08672300  0.55604700  0.15791100  1
  H  559  1  0.14600000  0.61435900  0.20476500  1
  H  560  1  0.18741500  0.65506200  0.14246000  1
  H  569  1  0.42434300  0.44727900  0.60920900  1
  H  574  1  0.37964700  0.40377500  0.55121800  1
  H  579  1  0.38634400  0.41966700  0.69220100  1
  H  580  1  0.41200700  0.44236900  0.65791500  1
  H  581  1  0.35268900  0.38410500  0.70478700  1
  H  582  1  0.31103200  0.34363200  0.64247800  1
  H  591  1  0.18570100  0.18821800  0.88234500  1
  H  596  1  0.15783200  0.15340900  0.80973500  1
  H  601  1  0.13602700  0.14208600  0.94972700  1
  H  602  1  0.16518500  0.17272100  0.92599200  1
  H  603  1  0.10415600  0.10260800  0.94859800  1
  H  604  1  0.07983500  0.07247300  0.87269400  1
  H  613  1  0.31274900  0.81032100  0.38242400  1
  H  618  1  0.34083200  0.84495800  0.30981600  1
  H  623  1  0.36246200  0.85638000  0.44982700  1
  H  624  1  0.33325000  0.82580200  0.42608300  1
  H  625  1  0.39443600  0.89577400  0.44869700  1
  H  626  1  0.41898000  0.92573100  0.37279700  1
  H  635  1  0.56002400  0.42814200  0.62636200  1
  H  640  1  0.62559200  0.42407000  0.57220800  1
  H  645  1  0.58381000  0.36728500  0.69570700  1
  H  646  1  0.56067600  0.39910000  0.66743800  1
  H  647  1  0.62432300  0.33907400  0.70504600  1
  H  648  1  0.68827300  0.33886000  0.64883900  1
  H  657  1  0.93844200  0.57031100  0.12644800  1
  H  662  1  0.87292900  0.57445500  0.07223500  1
  H  667  1  0.91467200  0.63120100  0.19576600  1
  H  668  1  0.93779200  0.59935900  0.16751900  1
  H  669  1  0.87417900  0.65945300  0.20507400  1
  H  670  1  0.81027200  0.65973200  0.14882000  1
  H  679  1  0.31376000  0.18759300  0.61691500  1
  H  684  1  0.34130200  0.15267400  0.68959600  1
  H  689  1  0.36308900  0.14096400  0.54963000  1
  H  690  1  0.33416600  0.17186600  0.57330700  1
  H  691  1  0.39469900  0.10128900  0.55082800  1
  H  692  1  0.41873400  0.07104000  0.62677600  1
  H  701  1  0.18484600  0.81094700  0.11693200  1
  H  706  1  0.15716400  0.84579200  0.18959200  1
  H  711  1  0.13544500  0.85744900  0.04961100  1
  H  712  1  0.16442600  0.82661900  0.07330900  1
  H  713  1  0.10375000  0.89705700  0.05078900  1
  H  714  1  0.07956700  0.92722800  0.12672000  1
  H  723  1  0.93887500  0.42654500  0.87361200  1
  H  728  1  0.87245600  0.42340100  0.92678000  1
  H  733  1  0.91551500  0.36562800  0.80418400  1
  H  734  1  0.93857400  0.39728100  0.83269300  1
  H  735  1  0.87477800  0.33795400  0.79425700  1
  H  736  1  0.80995900  0.33869800  0.84945500  1
  H  745  1  0.55968200  0.57192500  0.37349700  1
  H  750  1  0.62604300  0.57516800  0.42673300  1
  H  755  1  0.58305000  0.63282400  0.30405700  1
  H  756  1  0.55999700  0.60116300  0.33255900  1
  H  757  1  0.62376900  0.66053600  0.29415600  1
  H  758  1  0.68853100  0.65989400  0.34942300  1
  H  785  1  0.06949500  0.01190700  0.17517500  1
  H  786  1  0.04124800  0.97323300  0.17877200  1
  H  787  1  0.97006900  0.92078400  0.22422700  1
  H  788  1  0.94089100  0.91244300  0.26139600  1
  H  789  1  0.96959000  0.98268300  0.30010500  1
  H  790  1  0.04093100  0.04017700  0.25026200  1
  H  791  1  0.04105800  0.95952100  0.27431200  1
  H  792  1  0.06894800  0.98784200  0.34963000  1
  H  793  1  0.04052800  0.02638500  0.34587300  1
  H  794  1  0.96981400  0.01669000  0.22400300  1
  H  795  1  0.96941000  0.07853000  0.29993000  1
  H  796  1  0.94049300  0.08677300  0.26252500  1
  H  799  1  0.99337600  0.96084500  0.19827800  1
  H  800  1  0.01844800  0.94172400  0.21534000  1
  H  802  1  0.99272400  0.03855600  0.32603000  1
  H  803  1  0.01782200  0.05781800  0.30917000  1
  H  807  1  0.08073300  0.06206500  0.22565300  1
  H  808  1  0.93104300  0.95608800  0.31914400  1
  H  809  1  0.93118600  0.04313900  0.20476100  1
  H  811  1  0.08075300  0.93779400  0.29916300  1
  H  836  1  0.42910300  0.98640300  0.67524200  1
  H  837  1  0.45725800  0.02514600  0.67883800  1
  H  838  1  0.52826600  0.07780200  0.72432800  1
  H  839  1  0.55741100  0.08621800  0.76150500  1
  H  840  1  0.52890400  0.01588600  0.80019100  1
  H  841  1  0.45771700  0.95821800  0.75034100  1
  H  842  1  0.45739000  0.03886600  0.77437400  1
  H  843  1  0.42953400  0.01046900  0.84968000  1
  H  844  1  0.45806000  0.97200200  0.84593500  1
  H  845  1  0.52878300  0.98186500  0.72408400  1
  H  846  1  0.52934500  0.92005100  0.80003400  1
  H  847  1  0.55827600  0.91186600  0.76262400  1
  H  850  1  0.50509400  0.03767400  0.69836300  1
  H  851  1  0.47995600  0.05671600  0.71541300  1
  H  853  1  0.50591800  0.95997600  0.82611700  1
  H  854  1  0.48087900  0.94063500  0.80926000  1
  H  858  1  0.41795000  0.93625600  0.72573600  1
  H  859  1  0.56738300  0.04256000  0.81923100  1
  H  860  1  0.56750400  0.95548000  0.70486400  1
  H  862  1  0.41763800  0.06050500  0.79920900  1
  H  887  1  0.24665200  0.80480400  0.42453100  1
  H  888  1  0.28459000  0.77629800  0.43229900  1
  H  889  1  0.33215700  0.70591100  0.48418900  1
  H  890  1  0.33616200  0.67674300  0.52199800  1
  H  891  1  0.26105700  0.70414700  0.55142800  1
  H  892  1  0.21020200  0.77625900  0.49598900  1
  H  893  1  0.28740900  0.77616500  0.52852400  1
  H  894  1  0.25096000  0.80435200  0.60012200  1
  H  895  1  0.21300100  0.77590800  0.59219100  1
  H  896  1  0.23660300  0.70431400  0.47273800  1
  H  897  1  0.16542800  0.70578900  0.53990600  1
  H  898  1  0.16147000  0.67677800  0.50196400  1
  H  901  1  0.29507900  0.72857100  0.45328800  1
  H  902  1  0.31180000  0.75379900  0.47249500  1
  H  904  1  0.20248400  0.72829900  0.57095100  1
  H  905  1  0.18579800  0.75362900  0.55185000  1
  H  909  1  0.19243800  0.81730200  0.46974500  1
  H  910  1  0.29042800  0.67603800  0.57979500  1
  H  911  1  0.20721200  0.67636100  0.44421400  1
  H  913  1  0.30517200  0.81706100  0.55498800  1
  H  938  1  0.25193400  0.19380800  0.92447800  1
  H  939  1  0.21399100  0.22231000  0.93223700  1
  H  940  1  0.16637600  0.29265300  0.98414200  1
  H  941  1  0.16234400  0.32179800  0.02196420  1
  H  942  1  0.23744200  0.29440200  0.05142020  1
  H  943  1  0.28834300  0.22232400  0.99596900  1
  H  944  1  0.21113200  0.22238200  0.02847420  1
  H  945  1  0.24755900  0.19420000  0.10008600  1
  H  946  1  0.28550400  0.22266700  0.09218120  1
  H  947  1  0.26193000  0.29427700  0.97273200  1
  H  948  1  0.33306500  0.29282600  0.03994520  1
  H  949  1  0.33702700  0.32185000  0.00201221  1
  H  952  1  0.20348000  0.27002600  0.95324900  1
  H  953  1  0.18675700  0.24477700  0.97242700  1
  H  955  1  0.29600100  0.27028700  0.07095920  1
  H  956  1  0.31271900  0.24497300  0.05186220  1
  H  960  1  0.30610200  0.18127100  0.96972900  1
  H  961  1  0.20798200  0.32242200  0.07981520  1
  H  962  1  0.29139600  0.32216900  0.94419500  1
  H  964  1  0.19338600  0.18145500  0.05491720  1
  H  989  1  0.75491200  0.17241100  0.09716020  1
  H  990  1  0.71691300  0.20150000  0.09179920  1
  H  991  1  0.66819000  0.27376800  0.04441620  1
  H  992  1  0.66206600  0.30324300  0.00732221  1
  H  993  1  0.73472800  0.27527800  0.97260600  1
  H  994  1  0.78914700  0.20329800  0.02558420  1
  H  995  1  0.71057000  0.20286200  0.99700500  1
  H  996  1  0.74505100  0.17311900  0.92506800  1
  H  997  1  0.78264100  0.20270600  0.93059600  1
  H  998  1  0.76414400  0.27501500  0.05058920  1
  H  999  1  0.83040900  0.27528200  0.97850300  1
  H  1000  1  0.83624500  0.30443500  0.01590820  1
  H  1003  1  0.70656300  0.25034700  0.07265220  1
  H  1004  1  0.68849100  0.22556900  0.05407720  1
  H  1006  1  0.79229500  0.25155200  0.95017200  1
  H  1007  1  0.81081600  0.22687000  0.96843000  1
  H  1011  1  0.80443500  0.15653900  0.05317820  1
  H  1012  1  0.70825600  0.31104200  0.94989700  1
  H  1013  1  0.79008800  0.31132300  0.07332920  1
  H  1015  1  0.69563600  0.15642900  0.96926400  1
  H  1040  1  0.74361900  0.82611400  0.59720800  1
  H  1041  1  0.78160600  0.79701100  0.59184800  1
  H  1042  1  0.83032500  0.72476100  0.54443700  1
  H  1043  1  0.83645100  0.69530400  0.50732800  1
  H  1044  1  0.76381300  0.72331600  0.47260100  1
  H  1045  1  0.70940400  0.79528900  0.52559700  1
  H  1046  1  0.78798500  0.79571800  0.49704200  1
  H  1047  1  0.75353400  0.82550700  0.42511000  1
  H  1048  1  0.71593900  0.79592000  0.43060700  1
  H  1049  1  0.73437900  0.72355000  0.55057100  1
  H  1050  1  0.66812100  0.72335200  0.47847800  1
  H  1051  1  0.66226600  0.69418700  0.51587200  1
  H  1054  1  0.79193700  0.74817300  0.57266800  1
  H  1055  1  0.81004000  0.77295600  0.55412700  1
  H  1057  1  0.70626200  0.74707200  0.45016000  1
  H  1058  1  0.68774100  0.77175000  0.46842400  1
  H  1062  1  0.69410400  0.84201600  0.55319000  1
  H  1063  1  0.79027600  0.68754300  0.44988700  1
  H  1064  1  0.70841200  0.68726400  0.57330500  1
  H  1066  1  0.80276200  0.84236300  0.46920000  1
  H  1091  1  0.57575600  0.49488400  0.67578700  1
  H  1092  1  0.54598300  0.45818400  0.68526400  1
  H  1093  1  0.47388400  0.41539000  0.73940200  1
  H  1094  1  0.44435700  0.41445400  0.77721700  1
  H  1095  1  0.47356200  0.49048500  0.80212700  1
  H  1096  1  0.54648800  0.53661700  0.74394600  1
  H  1097  1  0.54636800  0.46285100  0.78056300  1
  H  1098  1  0.57508900  0.50455200  0.84897400  1
  H  1099  1  0.54536000  0.54123400  0.83930200  1
  H  1100  1  0.47386200  0.50896900  0.72185700  1
  H  1101  1  0.47373600  0.58407900  0.78457000  1
  H  1102  1  0.44449800  0.58501600  0.74652200  1
  H  1105  1  0.49742200  0.45016600  0.70634100  1
  H  1106  1  0.52228100  0.43404800  0.72650200  1
  H  1108  1  0.49697300  0.54927400  0.81782300  1
  H  1109  1  0.52200600  0.56539200  0.79787800  1
  H  1113  1  0.59163600  0.54930000  0.71667600  1
  H  1114  1  0.44407400  0.46446800  0.83162000  1
  H  1115  1  0.44473500  0.53518200  0.69205700  1
  H  1117  1  0.59112300  0.45004100  0.80798100  1
  H  1142  1  0.92272600  0.50364300  0.17587000  1
  H  1143  1  0.95249200  0.54035500  0.18533500  1
  H  1144  1  0.02459400  0.58317800  0.23944400  1
  H  1145  1  0.05412600  0.58412900  0.27725400  1
  H  1146  1  0.02497900  0.50807600  0.30216100  1
  H  1147  1  0.95205100  0.46191200  0.24400700  1
  H  1148  1  0.95215400  0.53567300  0.28062400  1
  H  1149  1  0.92346000  0.49393600  0.34902600  1
  H  1150  1  0.95321100  0.45727900  0.33934600  1
  H  1151  1  0.02465200  0.48958200  0.22187700  1
  H  1152  1  0.02483200  0.41447000  0.28458800  1
  H  1153  1  0.05404100  0.41353900  0.24652000  1
  H  1156  1  0.00106200  0.54838900  0.20638300  1
  H  1157  1  0.97620700  0.56449500  0.22656300  1
  H  1159  1  0.00160400  0.44927100  0.31786000  1
  H  1160  1  0.97657300  0.43314000  0.29792100  1
  H  1164  1  0.90686500  0.44924500  0.21675100  1
  H  1165  1  0.05448200  0.53409100  0.33163700  1
  H  1166  1  0.05378600  0.46338700  0.19206500  1
  H  1168  1  0.90750300  0.54854900  0.30800800  1
  H  1175  1  0.83308900  0.80344300  0.39378400  1
  H  1180  1  0.83143000  0.87391500  0.44156000  1
  H  1185  1  0.89273100  0.82552400  0.32278000  1
  H  1186  1  0.86295500  0.80236400  0.35320400  1
  H  1187  1  0.91672900  0.86773200  0.30932800  1
  H  1188  1  0.91103900  0.93600800  0.35996000  1
  H  1197  1  0.66550700  0.19512400  0.89371800  1
  H  1202  1  0.66712300  0.12468200  0.94153000  1
  H  1207  1  0.60573600  0.17310100  0.82280600  1
  H  1208  1  0.63557000  0.19623600  0.85318900  1
  H  1209  1  0.58169300  0.13090500  0.80938500  1
  H  1210  1  0.58734000  0.06265300  0.86005300  1
  H  1219  1  0.42459500  0.55205200  0.65191600  1
  H  1224  1  0.37947600  0.59498800  0.71000400  1
  H  1229  1  0.38632700  0.57949400  0.56898500  1
  H  1230  1  0.41221900  0.55697300  0.60321600  1
  H  1231  1  0.35234700  0.61477000  0.55648500  1
  H  1232  1  0.31033700  0.65473900  0.61886300  1
  H  1241  1  0.07382400  0.44641400  0.15188800  1
  H  1246  1  0.11910900  0.40366600  0.20998400  1
  H  1251  1  0.11199900  0.41889500  0.06894820  1
  H  1252  1  0.08613400  0.44143900  0.10318300  1
  H  1253  1  0.14602700  0.38366200  0.05645120  1
  H  1254  1  0.18823900  0.34390500  0.11884500  1
  H  1263  1  0.66406400  0.80287700  0.62855200  1
  H  1268  1  0.66567600  0.87363800  0.58120900  1
  H  1273  1  0.60491100  0.82470500  0.70003400  1
  H  1274  1  0.63437300  0.80161400  0.66925700  1
  H  1275  1  0.58125200  0.86695600  0.71395600  1
  H  1276  1  0.58689800  0.93552300  0.66371600  1
  H  1285  1  0.83437600  0.19566500  0.12860000  1
  H  1290  1  0.83294300  0.12498100  0.08114920  1
  H  1295  1  0.89348000  0.17383200  0.20012300  1
  H  1296  1  0.86401400  0.19691800  0.16934600  1
  H  1297  1  0.91721600  0.13160800  0.21399900  1
  H  1298  1  0.91178300  0.06311900  0.16362700  1
  H  1307  1  0.07429700  0.55120000  0.37188700  1
  H  1312  1  0.11879600  0.59490500  0.31389900  1
  H  1317  1  0.11241100  0.57873400  0.45486300  1
  H  1318  1  0.08672300  0.55604700  0.42058800  1
  H  1319  1  0.14600000  0.61435900  0.46744200  1
  H  1320  1  0.18741500  0.65506200  0.40513700  1
  H  1329  1  0.42434300  0.44727900  0.87188600  1
  H  1334  1  0.37964700  0.40377500  0.81389500  1
  H  1339  1  0.38634400  0.41966700  0.95487800  1
  H  1340  1  0.41200700  0.44236900  0.92059200  1
  H  1341  1  0.35268900  0.38410500  0.96746400  1
  H  1342  1  0.31103200  0.34363200  0.90515500  1
  H  1351  1  0.18570100  0.18821800  0.14502200  1
  H  1356  1  0.15783200  0.15340900  0.07241220  1
  H  1361  1  0.13602700  0.14208600  0.21240400  1
  H  1362  1  0.16518500  0.17272100  0.18866900  1
  H  1363  1  0.10415600  0.10260800  0.21127500  1
  H  1364  1  0.07983500  0.07247300  0.13537100  1
  H  1373  1  0.31274900  0.81032100  0.64510100  1
  H  1378  1  0.34083200  0.84495800  0.57249300  1
  H  1383  1  0.36246200  0.85638000  0.71250400  1
  H  1384  1  0.33325000  0.82580200  0.68876000  1
  H  1385  1  0.39443600  0.89577400  0.71137400  1
  H  1386  1  0.41898000  0.92573100  0.63547400  1
  H  1395  1  0.56002400  0.42814200  0.88903900  1
  H  1400  1  0.62559200  0.42407000  0.83488500  1
  H  1405  1  0.58381000  0.36728500  0.95838400  1
  H  1406  1  0.56067600  0.39910000  0.93011500  1
  H  1407  1  0.62432300  0.33907400  0.96772300  1
  H  1408  1  0.68827300  0.33886000  0.91151600  1
  H  1417  1  0.93844200  0.57031100  0.38912500  1
  H  1422  1  0.87292900  0.57445500  0.33491200  1
  H  1427  1  0.91467200  0.63120100  0.45844300  1
  H  1428  1  0.93779200  0.59935900  0.43019600  1
  H  1429  1  0.87417900  0.65945300  0.46775100  1
  H  1430  1  0.81027200  0.65973200  0.41149700  1
  H  1439  1  0.31376000  0.18759300  0.87959200  1
  H  1444  1  0.34130200  0.15267400  0.95227300  1
  H  1449  1  0.36308900  0.14096400  0.81230700  1
  H  1450  1  0.33416600  0.17186600  0.83598400  1
  H  1451  1  0.39469900  0.10128900  0.81350500  1
  H  1452  1  0.41873400  0.07104000  0.88945300  1
  H  1461  1  0.18484600  0.81094700  0.37960900  1
  H  1466  1  0.15716400  0.84579200  0.45226900  1
  H  1471  1  0.13544500  0.85744900  0.31228800  1
  H  1472  1  0.16442600  0.82661900  0.33598600  1
  H  1473  1  0.10375000  0.89705700  0.31346600  1
  H  1474  1  0.07956700  0.92722800  0.38939700  1
  H  1483  1  0.93887500  0.42654500  0.13628900  1
  H  1488  1  0.87245600  0.42340100  0.18945700  1
  H  1493  1  0.91551500  0.36562800  0.06686120  1
  H  1494  1  0.93857400  0.39728100  0.09537020  1
  H  1495  1  0.87477800  0.33795400  0.05693420  1
  H  1496  1  0.80995900  0.33869800  0.11213200  1
  H  1505  1  0.55968200  0.57192500  0.63617400  1
  H  1510  1  0.62604300  0.57516800  0.68941000  1
  H  1515  1  0.58305000  0.63282400  0.56673400  1
  H  1516  1  0.55999700  0.60116300  0.59523600  1
  H  1517  1  0.62376900  0.66053600  0.55683300  1
  H  1518  1  0.68853100  0.65989400  0.61210000  1
  C  1  1  0.98709000  0.02418700  0.99974700  1
  C  2  1  0.98711200  0.04266800  0.02168000  1
  C  3  1  0.02348600  0.01594200  0.04520800  1
  C  4  1  0.02378400  0.99672200  0.02390900  1
  C  5  1  0.04106000  0.97389400  0.02653100  1
  C  6  1  0.05726000  0.96975800  0.04969400  1
  C  7  1  0.05721400  0.98980800  0.07001700  1
  C  8  1  0.04057400  0.01256500  0.06778600  1
  C  9  1  0.96960600  0.06516900  0.02144500  1
  C  10  1  0.95264100  0.07002700  0.99934700  1
  C  11  1  0.95276600  0.05258700  0.97672300  1
  C  12  1  0.96962600  0.02953900  0.97755300  1
  C  13  1  0.02393800  0.00287000  0.97523300  1
  C  14  1  0.02388700  0.98362900  0.95395000  1
  C  15  1  0.98748200  0.95674100  0.97723400  1
  C  16  1  0.98720300  0.97523700  0.99915100  1
  C  17  1  0.97008500  0.93415500  0.97735300  1
  C  18  1  0.95296200  0.92924100  0.99931500  1
  C  19  1  0.95281900  0.94670100  0.02192500  1
  C  20  1  0.96960000  0.96981200  0.02121600  1
  C  21  1  0.04112900  0.02577800  0.97271800  1
  C  22  1  0.05745200  0.02998300  0.94965300  1
  C  23  1  0.05765200  0.00990700  0.92935400  1
  C  24  1  0.04111400  0.98706800  0.93149200  1
  C  37  1  0.00553900  0.99975500  0.99950900  1
  C  38  1  0.00581900  0.95983900  0.95386000  1
  C  41  1  0.00529500  0.03964000  0.04518700  1
  C  44  1  0.93711500  0.94113600  0.04451000  1
  C  45  1  0.93725600  0.05812100  0.95400500  1
  C  46  1  0.07255000  0.05342100  0.94680800  1
  C  50  1  0.07242800  0.94637700  0.05261400  1
  C  52  1  0.51152900  0.97434000  0.49983400  1
  C  53  1  0.51154800  0.95586200  0.52177000  1
  C  54  1  0.47509600  0.98249300  0.54528100  1
  C  55  1  0.47475100  0.00170900  0.52397800  1
  C  56  1  0.45740600  0.02448700  0.52658700  1
  C  57  1  0.44119300  0.02858600  0.54974900  1
  C  58  1  0.44127700  0.00853300  0.57006800  1
  C  59  1  0.45799400  0.98583100  0.56785300  1
  C  60  1  0.52911900  0.93340900  0.52154500  1
  C  61  1  0.54609200  0.92858600  0.49944600  1
  C  62  1  0.54591800  0.94601800  0.47681800  1
  C  63  1  0.52900600  0.96902400  0.47764200  1
  C  64  1  0.47463500  0.99555700  0.47530200  1
  C  65  1  0.47464300  0.01479500  0.45401900  1
  C  66  1  0.51095600  0.04179100  0.47732300  1
  C  67  1  0.51128300  0.02328900  0.49923400  1
  C  68  1  0.52828200  0.06443100  0.47745400  1
  C  69  1  0.54538900  0.06938700  0.49942000  1
  C  70  1  0.54558200  0.05191800  0.52202200  1
  C  71  1  0.52887600  0.02875300  0.52129900  1
  C  72  1  0.45751500  0.97259700  0.47277600  1
  C  73  1  0.44119100  0.96835900  0.44971900  1
  C  74  1  0.44095200  0.98842600  0.42941500  1
  C  75  1  0.45744800  0.01129600  0.43154200  1
  C  88  1  0.49301500  0.99872300  0.49958600  1
  C  89  1  0.49263900  0.03864000  0.45393800  1
  C  92  1  0.49335400  0.95884800  0.54527300  1
  C  95  1  0.56128200  0.05750600  0.54460200  1
  C  96  1  0.56141400  0.94049100  0.45408800  1
  C  97  1  0.42613300  0.94489400  0.44688900  1
  C  101  1  0.42596300  0.05192700  0.55266500  1
  C  103  1  0.22443500  0.72218000  0.24694300  1
  C  104  1  0.20339100  0.72259900  0.26641300  1
  C  105  1  0.22759600  0.75869200  0.29299800  1
  C  106  1  0.24913300  0.75881000  0.27404900  1
  C  107  1  0.27150900  0.77613800  0.27910300  1
  C  108  1  0.27299400  0.79251500  0.30245500  1
  C  109  1  0.25089100  0.79246300  0.32050300  1
  C  110  1  0.22851300  0.77579900  0.31581100  1
  C  111  1  0.18078900  0.70549200  0.26335800  1
  C  112  1  0.17857800  0.68827900  0.24101000  1
  C  113  1  0.19898600  0.68748700  0.22101900  1
  C  114  1  0.22174200  0.70446200  0.22447000  1
  C  115  1  0.24847200  0.75893900  0.22501500  1
  C  116  1  0.27000400  0.75890900  0.20605800  1
  C  117  1  0.29420900  0.72267300  0.23244300  1
  C  118  1  0.27318400  0.72217000  0.25193400  1
  C  119  1  0.31680900  0.70554700  0.23539500  1
  C  120  1  0.31904800  0.68824600  0.25767000  1
  C  121  1  0.29867000  0.68737600  0.27769200  1
  C  122  1  0.27590400  0.70435700  0.27433000  1
  C  123  1  0.22610800  0.77631200  0.22006500  1
  C  124  1  0.22461500  0.79279800  0.19678900  1
  C  125  1  0.24671400  0.79282600  0.17873400  1
  C  126  1  0.26909300  0.77614000  0.18334000  1
  C  139  1  0.24880600  0.74053900  0.24948500  1
  C  140  1  0.29377800  0.74101600  0.20884700  1
  C  143  1  0.20380900  0.74083000  0.29009900  1
  C  146  1  0.30152300  0.67175400  0.30093100  1
  C  147  1  0.19617900  0.67193800  0.19773000  1
  C  148  1  0.20196700  0.80847200  0.19176000  1
  C  152  1  0.29565900  0.80812800  0.30757100  1
  C  154  1  0.27408700  0.27640300  0.74693900  1
  C  155  1  0.29511800  0.27599700  0.76642300  1
  C  156  1  0.27092100  0.23987900  0.79298200  1
  C  157  1  0.24939600  0.23974900  0.77401900  1
  C  158  1  0.22703600  0.22239700  0.77904800  1
  C  159  1  0.22553900  0.20602800  0.80240600  1
  C  160  1  0.24763000  0.20609200  0.82046800  1
  C  161  1  0.27000400  0.22276200  0.81578600  1
  C  162  1  0.31770800  0.29312100  0.76339000  1
  C  163  1  0.31993300  0.31032500  0.74103700  1
  C  164  1  0.29953500  0.31111500  0.72103500  1
  C  165  1  0.27678700  0.29412800  0.72446800  1
  C  166  1  0.25007500  0.23964600  0.72498300  1
  C  167  1  0.22855700  0.23968500  0.70601000  1
  C  168  1  0.20432200  0.27589000  0.73241100  1
  C  169  1  0.22533700  0.27638700  0.75191100  1
  C  170  1  0.18171200  0.29300200  0.73536300  1
  C  171  1  0.17945100  0.31028200  0.75765000  1
  C  172  1  0.19982400  0.31115900  0.77767600  1
  C  173  1  0.22259700  0.29418600  0.77432000  1
  C  174  1  0.27244700  0.22227900  0.72003400  1
  C  175  1  0.27395200  0.20580100  0.69675100  1
  C  176  1  0.25186300  0.20578100  0.67868500  1
  C  177  1  0.22948900  0.22247300  0.68328000  1
  C  190  1  0.24972300  0.25803200  0.74946200  1
  C  191  1  0.20477300  0.25756700  0.70880000  1
  C  194  1  0.29469800  0.25775900  0.79010300  1
  C  197  1  0.19696000  0.32677200  0.80092100  1
  C  198  1  0.30234300  0.32666500  0.69774700  1
  C  199  1  0.29659700  0.19011600  0.69173800  1
  C  203  1  0.20288000  0.19039600  0.80750600  1
  C  205  1  0.77400200  0.25755100  0.75011900  1
  C  206  1  0.79377400  0.25750600  0.72933900  1
  C  207  1  0.76905200  0.22064300  0.70449600  1
  C  208  1  0.74829000  0.22064300  0.72430600  1
  C  209  1  0.72607800  0.20276500  0.72062000  1
  C  210  1  0.72437500  0.18550900  0.69798600  1
  C  211  1  0.74570400  0.18536500  0.67907700  1
  C  212  1  0.76773100  0.20280100  0.68227600  1
  C  213  1  0.81612400  0.27510000  0.73080800  1
  C  214  1  0.81952800  0.29225300  0.75300000  1
  C  215  1  0.80082600  0.29229100  0.77464500  1
  C  216  1  0.77799900  0.27514400  0.77254000  1
  C  217  1  0.75115400  0.22045700  0.77300200  1
  C  218  1  0.73034400  0.21997400  0.79275600  1
  C  219  1  0.70514900  0.25670200  0.76819100  1
  C  220  1  0.72498300  0.25725000  0.74748200  1
  C  221  1  0.68253800  0.27397000  0.76681500  1
  C  222  1  0.67896800  0.29131700  0.74480500  1
  C  223  1  0.69777200  0.29191300  0.72325300  1
  C  224  1  0.72081400  0.27503900  0.72524600  1
  C  225  1  0.77361300  0.20286600  0.77657900  1
  C  226  1  0.77550400  0.18543200  0.79906400  1
  C  227  1  0.75414000  0.18482500  0.81792400  1
  C  228  1  0.73186500  0.20195500  0.81481600  1
  C  241  1  0.74961000  0.23906200  0.74873100  1
  C  242  1  0.70669000  0.23813700  0.79153300  1
  C  245  1  0.79242400  0.23915700  0.70581200  1
  C  248  1  0.69359300  0.30828400  0.70065900  1
  C  249  1  0.80492200  0.30839700  0.79743300  1
  C  250  1  0.79841700  0.17034800  0.80376600  1
  C  254  1  0.70165300  0.17015000  0.69322900  1
  C  256  1  0.72453200  0.74103900  0.25011100  1
  C  257  1  0.70476700  0.74109900  0.22932500  1
  C  258  1  0.72950700  0.77796700  0.20450600  1
  C  259  1  0.75026300  0.77795100  0.22432200  1
  C  260  1  0.77247900  0.79582500  0.22065300  1
  C  261  1  0.77418800  0.81310100  0.19803300  1
  C  262  1  0.75286900  0.81325500  0.17911400  1
  C  263  1  0.73083700  0.79582700  0.18230000  1
  C  264  1  0.68240900  0.72351200  0.23078200  1
  C  265  1  0.67898200  0.70636900  0.25297800  1
  C  266  1  0.69768900  0.70630300  0.27461900  1
  C  267  1  0.72052500  0.72343700  0.27252100  1
  C  268  1  0.74738700  0.77811400  0.27301500  1
  C  269  1  0.76818900  0.77857700  0.29277800  1
  C  270  1  0.79338000  0.74185300  0.26820100  1
  C  271  1  0.77355400  0.74132300  0.24748400  1
  C  272  1  0.81598200  0.72457500  0.26682900  1
  C  273  1  0.81956100  0.70724800  0.24480300  1
  C  274  1  0.80076100  0.70666600  0.22324700  1
  C  275  1  0.77772400  0.72354800  0.22524000  1
  C  276  1  0.72493600  0.79571400  0.27659500  1
  C  277  1  0.72304300  0.81313500  0.29908800  1
  C  278  1  0.74440700  0.81373700  0.31794600  1
  C  279  1  0.76667200  0.79659300  0.31484300  1
  C  292  1  0.74893300  0.75951900  0.24873500  1
  C  293  1  0.79183000  0.76039800  0.29156000  1
  C  296  1  0.70612900  0.75945800  0.20580600  1
  C  299  1  0.80494000  0.69029700  0.20065100  1
  C  300  1  0.69358900  0.69018000  0.29739700  1
  C  301  1  0.70013400  0.82822500  0.30379200  1
  C  305  1  0.79691800  0.82844900  0.19329000  1
  C  307  1  0.49154800  0.52381500  0.49513400  1
  C  308  1  0.49146900  0.54596000  0.51333800  1
  C  309  1  0.52794700  0.52397000  0.54139000  1
  C  310  1  0.52823200  0.50120400  0.52393000  1
  C  311  1  0.54619700  0.47961000  0.53003600  1
  C  312  1  0.56329900  0.48027700  0.55286300  1
  C  313  1  0.56289900  0.50334800  0.56960900  1
  C  314  1  0.54543300  0.52489200  0.56392700  1
  C  315  1  0.47384900  0.56795200  0.50891900  1
  C  316  1  0.45652300  0.56839900  0.48652900  1
  C  317  1  0.45618300  0.54679500  0.46783200  1
  C  318  1  0.47377700  0.52475400  0.47257000  1
  C  319  1  0.52842400  0.49824400  0.47511800  1
  C  320  1  0.52828400  0.47546600  0.45767300  1
  C  321  1  0.49156600  0.45349800  0.48542300  1
  C  322  1  0.49150700  0.47564400  0.50362500  1
  C  323  1  0.47390000  0.43151600  0.48969900  1
  C  324  1  0.45640600  0.43107100  0.51195800  1
  C  325  1  0.45593500  0.45266300  0.53066400  1
  C  326  1  0.47356700  0.47470400  0.52605500  1
  C  327  1  0.54642700  0.51984200  0.46913900  1
  C  328  1  0.56370100  0.51916300  0.44644800  1
  C  329  1  0.56344900  0.49608200  0.42971600  1
  C  330  1  0.54595000  0.47453200  0.43527600  1
  C  343  1  0.50993300  0.49972700  0.49945200  1
  C  344  1  0.50988500  0.45224700  0.46181300  1
  C  347  1  0.50959000  0.54719700  0.53710200  1
  C  350  1  0.43995200  0.45190400  0.55382000  1
  C  351  1  0.44032800  0.54753600  0.44459500  1
  C  352  1  0.57979700  0.54103800  0.44004100  1
  C  356  1  0.57942300  0.45842600  0.55930800  1
  C  358  1  0.00699700  0.47473600  0.99517100  1
  C  359  1  0.00709400  0.45259100  0.01337200  1
  C  360  1  0.97061200  0.47455900  0.04143700  1
  C  361  1  0.97031500  0.49732900  0.02398300  1
  C  362  1  0.95234400  0.51891500  0.03010000  1
  C  363  1  0.93524000  0.51823400  0.05292400  1
  C  364  1  0.93565200  0.49515700  0.06966300  1
  C  365  1  0.95313400  0.47362700  0.06397900  1
  C  366  1  0.02472200  0.43060700  0.00894800  1
  C  367  1  0.04203200  0.43016400  0.98654500  1
  C  368  1  0.04234900  0.45176400  0.96784400  1
  C  369  1  0.02475200  0.47379900  0.97259200  1
  C  370  1  0.97009900  0.50029500  0.97517300  1
  C  371  1  0.97021600  0.52307500  0.95773100  1
  C  372  1  0.00694500  0.54505300  0.98546200  1
  C  373  1  0.00702000  0.52290500  0.00366200  1
  C  374  1  0.02460600  0.56704100  0.98972900  1
  C  375  1  0.04210500  0.56749400  0.01198400  1
  C  376  1  0.04258700  0.54590400  0.03069300  1
  C  377  1  0.02496800  0.52385300  0.02608500  1
  C  378  1  0.95210600  0.47868700  0.96919800  1
  C  379  1  0.93481300  0.47936600  0.94652100  1
  C  380  1  0.93504400  0.50244900  0.92979000  1
  C  381  1  0.95253800  0.52400300  0.93534500  1
  C  394  1  0.98860400  0.49881600  0.99949700  1
  C  395  1  0.98861000  0.54630200  0.96186300  1
  C  398  1  0.98898200  0.45134400  0.03714300  1
  C  401  1  0.05856600  0.54668400  0.05385000  1
  C  402  1  0.05817600  0.45100900  0.94458700  1
  C  403  1  0.91872300  0.45748700  0.94012000  1
  C  407  1  0.91908500  0.54006400  0.05937200  1
  C  409  1  0.82980500  0.83625300  0.15821900  1
  C  410  1  0.83906600  0.86274500  0.16330100  1
  C  412  1  0.86713600  0.86182800  0.12399200  1
  C  413  1  0.85897900  0.83489100  0.11825800  1
  C  414  1  0.84013200  0.82241000  0.13558700  1
  C  416  1  0.88443400  0.87555300  0.10594200  1
  C  417  1  0.90688100  0.91629100  0.09284800  1
  C  418  1  0.91650100  0.90418500  0.06888200  1
  C  419  1  0.91012400  0.87685900  0.06404400  1
  C  422  1  0.89386000  0.86225000  0.08229900  1
  C  423  1  0.88625100  0.83525900  0.07717100  1
  C  424  1  0.86883700  0.82169100  0.09499400  1
  C  431  1  0.66875600  0.16232900  0.65817400  1
  C  432  1  0.65944900  0.13586200  0.66329800  1
  C  434  1  0.63134100  0.13679700  0.62401400  1
  C  435  1  0.63953400  0.16371800  0.61825500  1
  C  436  1  0.65841400  0.17618300  0.63555700  1
  C  438  1  0.61401000  0.12308400  0.60598800  1
  C  439  1  0.59151500  0.08236200  0.59292900  1
  C  440  1  0.58190300  0.09446300  0.56895700  1
  C  441  1  0.58829400  0.12178200  0.56410500  1
  C  444  1  0.60458000  0.13638500  0.58234500  1
  C  445  1  0.61222400  0.16336300  0.57719300  1
  C  446  1  0.62966700  0.17691900  0.59499600  1
  C  453  1  0.40435700  0.57105400  0.42180900  1
  C  454  1  0.38296700  0.58883700  0.42790500  1
  C  456  1  0.37137700  0.59348900  0.38130000  1
  C  457  1  0.39228400  0.57526100  0.37385400  1
  C  458  1  0.40862500  0.56410500  0.39441800  1
  C  460  1  0.35607500  0.60668500  0.36116900  1
  C  461  1  0.32330100  0.64018100  0.34943700  1
  C  462  1  0.32853000  0.63675400  0.32159000  1
  C  463  1  0.34766300  0.61709500  0.31385500  1
  C  466  1  0.36167400  0.60181000  0.33343600  1
  C  467  1  0.38189800  0.58304600  0.32620100  1
  C  468  1  0.39707500  0.56985400  0.34626100  1
  C  475  1  0.09414500  0.42750700  0.92178500  1
  C  476  1  0.11555500  0.40974800  0.92787500  1
  C  478  1  0.12711400  0.40507400  0.88126600  1
  C  479  1  0.10616400  0.42325800  0.87382000  1
  C  480  1  0.08984200  0.43442800  0.89439100  1
  C  482  1  0.14239400  0.39186000  0.86112800  1
  C  483  1  0.17520100  0.35839100  0.84940700  1
  C  484  1  0.16989200  0.36174300  0.82156700  1
  C  485  1  0.15073700  0.38137300  0.81381800  1
  C  488  1  0.13673800  0.39667300  0.83339600  1
  C  489  1  0.11647300  0.41539200  0.82616400  1
  C  490  1  0.10131900  0.42860600  0.84622700  1
  C  497  1  0.66727300  0.83583100  0.33893000  1
  C  498  1  0.65804700  0.86237300  0.33405100  1
  C  500  1  0.63017500  0.86128800  0.37349500  1
  C  501  1  0.63827700  0.83428900  0.37901300  1
  C  502  1  0.65701000  0.82186800  0.36151900  1
  C  504  1  0.61307200  0.87497600  0.39175900  1
  C  505  1  0.59097500  0.91575500  0.40530900  1
  C  506  1  0.58150100  0.90355100  0.42928500  1
  C  507  1  0.58775000  0.87615600  0.43388400  1
  C  510  1  0.60377400  0.86157300  0.41539600  1
  C  511  1  0.61129400  0.83451300  0.42029400  1
  C  512  1  0.62852400  0.82098500  0.40226200  1
  C  519  1  0.83127000  0.16275100  0.83892000  1
  C  520  1  0.84055900  0.13623900  0.83400000  1
  C  522  1  0.86836000  0.13730300  0.87349900  1
  C  523  1  0.86020100  0.16427800  0.87904700  1
  C  524  1  0.84148600  0.17670200  0.86153700  1
  C  526  1  0.88546700  0.12361900  0.89175900  1
  C  527  1  0.90764900  0.08286800  0.90525600  1
  C  528  1  0.91706900  0.09505000  0.92926500  1
  C  529  1  0.91075200  0.12242300  0.93390600  1
  C  532  1  0.89471500  0.13700100  0.91542800  1
  C  533  1  0.88712500  0.16403400  0.92036600  1
  C  534  1  0.86990000  0.17756300  0.90233200  1
  C  541  1  0.09425800  0.57056300  0.07668500  1
  C  542  1  0.11542500  0.58862100  0.07062200  1
  C  544  1  0.12705900  0.59320000  0.11722300  1
  C  545  1  0.10638000  0.57469900  0.12463400  1
  C  546  1  0.09012800  0.56344500  0.10405400  1
  C  548  1  0.14224100  0.60649300  0.13737900  1
  C  549  1  0.17463600  0.64032800  0.14918000  1
  C  550  1  0.16950000  0.63673300  0.17702500  1
  C  551  1  0.15061500  0.61682100  0.18471800  1
  C  554  1  0.13675100  0.60144600  0.16510300  1
  C  555  1  0.11676200  0.58241600  0.17229800  1
  C  556  1  0.10170600  0.56912400  0.15221200  1
  C  563  1  0.40428400  0.42801600  0.57668100  1
  C  564  1  0.38309200  0.40998200  0.57063000  1
  C  566  1  0.37150800  0.40537600  0.61723900  1
  C  567  1  0.39223800  0.42382600  0.62464400  1
  C  568  1  0.40846500  0.43509600  0.60405200  1
  C  570  1  0.35634800  0.39207000  0.63740400  1
  C  571  1  0.32389700  0.35828600  0.64920500  1
  C  572  1  0.32911800  0.36180700  0.67704000  1
  C  573  1  0.34804100  0.38167800  0.68474300  1
  C  576  1  0.36190200  0.39705700  0.66512700  1
  C  577  1  0.38194300  0.41603200  0.67231600  1
  C  578  1  0.39697800  0.42934000  0.65222300  1
  C  585  1  0.17468500  0.17380400  0.84368300  1
  C  586  1  0.15708400  0.15584000  0.83020100  1
  C  588  1  0.13773600  0.14126000  0.87197700  1
  C  589  1  0.15445300  0.15940300  0.88663400  1
  C  590  1  0.17282100  0.17565700  0.87207400  1
  C  592  1  0.12056000  0.12331600  0.88595100  1
  C  593  1  0.09001300  0.08608700  0.88446200  1
  C  594  1  0.08927000  0.08438700  0.91287200  1
  C  595  1  0.10411200  0.10357100  0.92794900  1
  C  598  1  0.11999500  0.12324300  0.91467400  1
  C  599  1  0.13604100  0.14194300  0.92904300  1
  C  600  1  0.15310900  0.15991100  0.91512900  1
  C  607  1  0.32387300  0.82465300  0.34376400  1
  C  608  1  0.34155700  0.84253900  0.33028600  1
  C  610  1  0.36088200  0.85711400  0.37207200  1
  C  611  1  0.34408500  0.83904100  0.38672700  1
  C  612  1  0.32569900  0.82281400  0.37215900  1
  C  614  1  0.37809300  0.87501800  0.38605300  1
  C  615  1  0.40875600  0.91215200  0.38456500  1
  C  616  1  0.40948300  0.91386800  0.41297500  1
  C  617  1  0.39452900  0.89476900  0.42805100  1
  C  620  1  0.37861500  0.87512500  0.41477500  1
  C  621  1  0.36247400  0.85650500  0.42914200  1
  C  622  1  0.34538000  0.83856400  0.41522400  1
  C  629  1  0.59037300  0.42889900  0.59637600  1
  C  630  1  0.61562600  0.41775600  0.58913800  1
  C  632  1  0.61655200  0.39039100  0.62899700  1
  C  633  1  0.59092900  0.40063100  0.63702000  1
  C  634  1  0.57817300  0.42003100  0.62051200  1
  C  636  1  0.63031800  0.37182000  0.64576800  1
  C  637  1  0.66956600  0.34501400  0.65500000  1
  C  638  1  0.65855600  0.33604500  0.67971800  1
  C  639  1  0.63264600  0.34524500  0.68709500  1
  C  642  1  0.61826700  0.36328900  0.67040900  1
  C  643  1  0.59262600  0.37320200  0.67794800  1
  C  644  1  0.57908200  0.39182900  0.66140100  1
  C  651  1  0.90811300  0.56957900  0.09644200  1
  C  652  1  0.88286600  0.58073100  0.08919700  1
  C  654  1  0.88195700  0.60813000  0.12903100  1
  C  655  1  0.90756200  0.59785900  0.13707600  1
  C  656  1  0.92031000  0.57844300  0.12058000  1
  C  658  1  0.86819700  0.62671300  0.14579300  1
  C  659  1  0.82896700  0.65355500  0.15499800  1
  C  660  1  0.83996500  0.66251000  0.17972400  1
  C  661  1  0.86586300  0.65329000  0.18711700  1
  C  664  1  0.88023700  0.63523400  0.17044200  1
  C  665  1  0.90586200  0.62529500  0.17800000  1
  C  666  1  0.91940000  0.60665300  0.16146400  1
  C  673  1  0.32465300  0.17316600  0.65561000  1
  C  674  1  0.34209300  0.15507400  0.66912600  1
  C  676  1  0.36132500  0.14025100  0.62738200  1
  C  677  1  0.34477000  0.15851400  0.61268800  1
  C  678  1  0.32653600  0.17494800  0.62721400  1
  C  680  1  0.37835400  0.12214100  0.61344000  1
  C  681  1  0.40863500  0.08469600  0.61498800  1
  C  682  1  0.40939900  0.08296800  0.58658200  1
  C  683  1  0.39469700  0.10223900  0.57147400  1
  C  686  1  0.37893800  0.12203200  0.58471700  1
  C  687  1  0.36305600  0.14084200  0.57031500  1
  C  688  1  0.34612600  0.15896700  0.58419400  1
  C  695  1  0.17388100  0.82534000  0.15561500  1
  C  696  1  0.15637800  0.84338000  0.16912300  1
  C  698  1  0.13714300  0.85815800  0.12736500  1
  C  699  1  0.15375800  0.83994100  0.11268200  1
  C  700  1  0.17201400  0.82354100  0.12722000  1
  C  702  1  0.12007400  0.87622200  0.11341100  1
  C  703  1  0.08969600  0.91358900  0.11493800  1
  C  704  1  0.08892800  0.91530300  0.08653100  1
  C  705  1  0.10371900  0.89609100  0.07143600  1
  C  708  1  0.11951100  0.87633100  0.08468800  1
  C  709  1  0.13546800  0.85757600  0.07029700  1
  C  710  1  0.15242500  0.83948600  0.08418700  1
  C  717  1  0.90808700  0.42774600  0.90313300  1
  C  718  1  0.88263000  0.41687100  0.91005700  1
  C  720  1  0.88204600  0.38930000  0.87033400  1
  C  721  1  0.90789100  0.39924300  0.86265400  1
  C  722  1  0.92057600  0.41861400  0.87924500  1
  C  724  1  0.86832600  0.37082700  0.85341600  1
  C  725  1  0.82886400  0.34454800  0.84360400  1
  C  726  1  0.84012600  0.33540800  0.81906600  1
  C  727  1  0.86627900  0.34422400  0.81209300  1
  C  730  1  0.88064300  0.36209200  0.82897900  1
  C  731  1  0.90650900  0.37168200  0.82180200  1
  C  732  1  0.92000900  0.39021700  0.83848800  1
  C  739  1  0.59044600  0.57076300  0.40304400  1
  C  740  1  0.61589900  0.58164400  0.40996800  1
  C  742  1  0.61648100  0.60922100  0.37025200  1
  C  743  1  0.59065200  0.59924900  0.36255100  1
  C  744  1  0.57796700  0.57987600  0.37914400  1
  C  746  1  0.63019900  0.62769300  0.35333300  1
  C  747  1  0.66964300  0.65401200  0.34354900  1
  C  748  1  0.65839600  0.66312400  0.31899300  1
  C  749  1  0.63225800  0.65428000  0.31200000  1
  C  752  1  0.61789800  0.63640600  0.32888200  1
  C  753  1  0.59204600  0.62678600  0.32168500  1
  C  754  1  0.57854600  0.60825100  0.33837100  1
  C  761  1  0.98709000  0.02418700  0.26242400  1
  C  762  1  0.98711200  0.04266800  0.28435700  1
  C  763  1  0.02348600  0.01594200  0.30788500  1
  C  764  1  0.02378400  0.99672200  0.28658600  1
  C  765  1  0.04106000  0.97389400  0.28920800  1
  C  766  1  0.05726000  0.96975800  0.31237100  1
  C  767  1  0.05721400  0.98980800  0.33269400  1
  C  768  1  0.04057400  0.01256500  0.33046300  1
  C  769  1  0.96960600  0.06516900  0.28412200  1
  C  770  1  0.95264100  0.07002700  0.26202400  1
  C  771  1  0.95276600  0.05258700  0.23940000  1
  C  772  1  0.96962600  0.02953900  0.24023000  1
  C  773  1  0.02393800  0.00287000  0.23791000  1
  C  774  1  0.02388700  0.98362900  0.21662700  1
  C  775  1  0.98748200  0.95674100  0.23991100  1
  C  776  1  0.98720300  0.97523700  0.26182800  1
  C  777  1  0.97008500  0.93415500  0.24003000  1
  C  778  1  0.95296200  0.92924100  0.26199200  1
  C  779  1  0.95281900  0.94670100  0.28460200  1
  C  780  1  0.96960000  0.96981200  0.28389300  1
  C  781  1  0.04112900  0.02577800  0.23539500  1
  C  782  1  0.05745200  0.02998300  0.21233000  1
  C  783  1  0.05765200  0.00990700  0.19203100  1
  C  784  1  0.04111400  0.98706800  0.19416900  1
  C  797  1  0.00553900  0.99975500  0.26218600  1
  C  798  1  0.00581900  0.95983900  0.21653700  1
  C  801  1  0.00529500  0.03964000  0.30786400  1
  C  804  1  0.93711500  0.94113600  0.30718700  1
  C  805  1  0.93725600  0.05812100  0.21668200  1
  C  806  1  0.07255000  0.05342100  0.20948500  1
  C  810  1  0.07242800  0.94637700  0.31529100  1
  C  812  1  0.51152900  0.97434000  0.76251100  1
  C  813  1  0.51154800  0.95586200  0.78444700  1
  C  814  1  0.47509600  0.98249300  0.80795800  1
  C  815  1  0.47475100  0.00170900  0.78665500  1
  C  816  1  0.45740600  0.02448700  0.78926400  1
  C  817  1  0.44119300  0.02858600  0.81242600  1
  C  818  1  0.44127700  0.00853300  0.83274500  1
  C  819  1  0.45799400  0.98583100  0.83053000  1
  C  820  1  0.52911900  0.93340900  0.78422200  1
  C  821  1  0.54609200  0.92858600  0.76212300  1
  C  822  1  0.54591800  0.94601800  0.73949500  1
  C  823  1  0.52900600  0.96902400  0.74031900  1
  C  824  1  0.47463500  0.99555700  0.73797900  1
  C  825  1  0.47464300  0.01479500  0.71669600  1
  C  826  1  0.51095600  0.04179100  0.74000000  1
  C  827  1  0.51128300  0.02328900  0.76191100  1
  C  828  1  0.52828200  0.06443100  0.74013100  1
  C  829  1  0.54538900  0.06938700  0.76209700  1
  C  830  1  0.54558200  0.05191800  0.78469900  1
  C  831  1  0.52887600  0.02875300  0.78397600  1
  C  832  1  0.45751500  0.97259700  0.73545300  1
  C  833  1  0.44119100  0.96835900  0.71239600  1
  C  834  1  0.44095200  0.98842600  0.69209200  1
  C  835  1  0.45744800  0.01129600  0.69421900  1
  C  848  1  0.49301500  0.99872300  0.76226300  1
  C  849  1  0.49263900  0.03864000  0.71661500  1
  C  852  1  0.49335400  0.95884800  0.80795000  1
  C  855  1  0.56128200  0.05750600  0.80727900  1
  C  856  1  0.56141400  0.94049100  0.71676500  1
  C  857  1  0.42613300  0.94489400  0.70956600  1
  C  861  1  0.42596300  0.05192700  0.81534200  1
  C  863  1  0.22443500  0.72218000  0.50962000  1
  C  864  1  0.20339100  0.72259900  0.52909000  1
  C  865  1  0.22759600  0.75869200  0.55567500  1
  C  866  1  0.24913300  0.75881000  0.53672600  1
  C  867  1  0.27150900  0.77613800  0.54178000  1
  C  868  1  0.27299400  0.79251500  0.56513200  1
  C  869  1  0.25089100  0.79246300  0.58318000  1
  C  870  1  0.22851300  0.77579900  0.57848800  1
  C  871  1  0.18078900  0.70549200  0.52603500  1
  C  872  1  0.17857800  0.68827900  0.50368700  1
  C  873  1  0.19898600  0.68748700  0.48369600  1
  C  874  1  0.22174200  0.70446200  0.48714700  1
  C  875  1  0.24847200  0.75893900  0.48769200  1
  C  876  1  0.27000400  0.75890900  0.46873500  1
  C  877  1  0.29420900  0.72267300  0.49512000  1
  C  878  1  0.27318400  0.72217000  0.51461100  1
  C  879  1  0.31680900  0.70554700  0.49807200  1
  C  880  1  0.31904800  0.68824600  0.52034700  1
  C  881  1  0.29867000  0.68737600  0.54036900  1
  C  882  1  0.27590400  0.70435700  0.53700700  1
  C  883  1  0.22610800  0.77631200  0.48274200  1
  C  884  1  0.22461500  0.79279800  0.45946600  1
  C  885  1  0.24671400  0.79282600  0.44141100  1
  C  886  1  0.26909300  0.77614000  0.44601700  1
  C  899  1  0.24880600  0.74053900  0.51216200  1
  C  900  1  0.29377800  0.74101600  0.47152400  1
  C  903  1  0.20380900  0.74083000  0.55277600  1
  C  906  1  0.30152300  0.67175400  0.56360800  1
  C  907  1  0.19617900  0.67193800  0.46040700  1
  C  908  1  0.20196700  0.80847200  0.45443700  1
  C  912  1  0.29565900  0.80812800  0.57024800  1
  C  914  1  0.27408700  0.27640300  0.00961621  1
  C  915  1  0.29511800  0.27599700  0.02910020  1
  C  916  1  0.27092100  0.23987900  0.05565920  1
  C  917  1  0.24939600  0.23974900  0.03669620  1
  C  918  1  0.22703600  0.22239700  0.04172520  1
  C  919  1  0.22553900  0.20602800  0.06508320  1
  C  920  1  0.24763000  0.20609200  0.08314520  1
  C  921  1  0.27000400  0.22276200  0.07846320  1
  C  922  1  0.31770800  0.29312100  0.02606720  1
  C  923  1  0.31993300  0.31032500  0.00371421  1
  C  924  1  0.29953500  0.31111500  0.98371200  1
  C  925  1  0.27678700  0.29412800  0.98714500  1
  C  926  1  0.25007500  0.23964600  0.98766000  1
  C  927  1  0.22855700  0.23968500  0.96868700  1
  C  928  1  0.20432200  0.27589000  0.99508800  1
  C  929  1  0.22533700  0.27638700  0.01458820  1
  C  930  1  0.18171200  0.29300200  0.99804000  1
  C  931  1  0.17945100  0.31028200  0.02032720  1
  C  932  1  0.19982400  0.31115900  0.04035320  1
  C  933  1  0.22259700  0.29418600  0.03699720  1
  C  934  1  0.27244700  0.22227900  0.98271100  1
  C  935  1  0.27395200  0.20580100  0.95942800  1
  C  936  1  0.25186300  0.20578100  0.94136200  1
  C  937  1  0.22948900  0.22247300  0.94595700  1
  C  950  1  0.24972300  0.25803200  0.01213920  1
  C  951  1  0.20477300  0.25756700  0.97147700  1
  C  954  1  0.29469800  0.25775900  0.05278020  1
  C  957  1  0.19696000  0.32677200  0.06359820  1
  C  958  1  0.30234300  0.32666500  0.96042400  1
  C  959  1  0.29659700  0.19011600  0.95441500  1
  C  963  1  0.20288000  0.19039600  0.07018320  1
  C  965  1  0.77400200  0.25755100  0.01279620  1
  C  966  1  0.79377400  0.25750600  0.99201600  1
  C  967  1  0.76905200  0.22064300  0.96717300  1
  C  968  1  0.74829000  0.22064300  0.98698300  1
  C  969  1  0.72607800  0.20276500  0.98329700  1
  C  970  1  0.72437500  0.18550900  0.96066300  1
  C  971  1  0.74570400  0.18536500  0.94175400  1
  C  972  1  0.76773100  0.20280100  0.94495300  1
  C  973  1  0.81612400  0.27510000  0.99348500  1
  C  974  1  0.81952800  0.29225300  0.01567720  1
  C  975  1  0.80082600  0.29229100  0.03732220  1
  C  976  1  0.77799900  0.27514400  0.03521720  1
  C  977  1  0.75115400  0.22045700  0.03567920  1
  C  978  1  0.73034400  0.21997400  0.05543320  1
  C  979  1  0.70514900  0.25670200  0.03086820  1
  C  980  1  0.72498300  0.25725000  0.01015920  1
  C  981  1  0.68253800  0.27397000  0.02949220  1
  C  982  1  0.67896800  0.29131700  0.00748221  1
  C  983  1  0.69777200  0.29191300  0.98593000  1
  C  984  1  0.72081400  0.27503900  0.98792300  1
  C  985  1  0.77361300  0.20286600  0.03925620  1
  C  986  1  0.77550400  0.18543200  0.06174120  1
  C  987  1  0.75414000  0.18482500  0.08060120  1
  C  988  1  0.73186500  0.20195500  0.07749320  1
  C  1001  1  0.74961000  0.23906200  0.01140820  1
  C  1002  1  0.70669000  0.23813700  0.05421020  1
  C  1005  1  0.79242400  0.23915700  0.96848900  1
  C  1008  1  0.69359300  0.30828400  0.96333600  1
  C  1009  1  0.80492200  0.30839700  0.06011020  1
  C  1010  1  0.79841700  0.17034800  0.06644320  1
  C  1014  1  0.70165300  0.17015000  0.95590600  1
  C  1016  1  0.72453200  0.74103900  0.51278800  1
  C  1017  1  0.70476700  0.74109900  0.49200200  1
  C  1018  1  0.72950700  0.77796700  0.46718300  1
  C  1019  1  0.75026300  0.77795100  0.48699900  1
  C  1020  1  0.77247900  0.79582500  0.48333000  1
  C  1021  1  0.77418800  0.81310100  0.46071000  1
  C  1022  1  0.75286900  0.81325500  0.44179100  1
  C  1023  1  0.73083700  0.79582700  0.44497700  1
  C  1024  1  0.68240900  0.72351200  0.49345900  1
  C  1025  1  0.67898200  0.70636900  0.51565500  1
  C  1026  1  0.69768900  0.70630300  0.53729600  1
  C  1027  1  0.72052500  0.72343700  0.53519800  1
  C  1028  1  0.74738700  0.77811400  0.53569200  1
  C  1029  1  0.76818900  0.77857700  0.55545500  1
  C  1030  1  0.79338000  0.74185300  0.53087800  1
  C  1031  1  0.77355400  0.74132300  0.51016100  1
  C  1032  1  0.81598200  0.72457500  0.52950600  1
  C  1033  1  0.81956100  0.70724800  0.50748000  1
  C  1034  1  0.80076100  0.70666600  0.48592400  1
  C  1035  1  0.77772400  0.72354800  0.48791700  1
  C  1036  1  0.72493600  0.79571400  0.53927200  1
  C  1037  1  0.72304300  0.81313500  0.56176500  1
  C  1038  1  0.74440700  0.81373700  0.58062300  1
  C  1039  1  0.76667200  0.79659300  0.57752000  1
  C  1052  1  0.74893300  0.75951900  0.51141200  1
  C  1053  1  0.79183000  0.76039800  0.55423700  1
  C  1056  1  0.70612900  0.75945800  0.46848300  1
  C  1059  1  0.80494000  0.69029700  0.46332800  1
  C  1060  1  0.69358900  0.69018000  0.56007400  1
  C  1061  1  0.70013400  0.82822500  0.56646900  1
  C  1065  1  0.79691800  0.82844900  0.45596700  1
  C  1067  1  0.49154800  0.52381500  0.75781100  1
  C  1068  1  0.49146900  0.54596000  0.77601500  1
  C  1069  1  0.52794700  0.52397000  0.80406700  1
  C  1070  1  0.52823200  0.50120400  0.78660700  1
  C  1071  1  0.54619700  0.47961000  0.79271300  1
  C  1072  1  0.56329900  0.48027700  0.81554000  1
  C  1073  1  0.56289900  0.50334800  0.83228600  1
  C  1074  1  0.54543300  0.52489200  0.82660400  1
  C  1075  1  0.47384900  0.56795200  0.77159600  1
  C  1076  1  0.45652300  0.56839900  0.74920600  1
  C  1077  1  0.45618300  0.54679500  0.73050900  1
  C  1078  1  0.47377700  0.52475400  0.73524700  1
  C  1079  1  0.52842400  0.49824400  0.73779500  1
  C  1080  1  0.52828400  0.47546600  0.72035000  1
  C  1081  1  0.49156600  0.45349800  0.74810000  1
  C  1082  1  0.49150700  0.47564400  0.76630200  1
  C  1083  1  0.47390000  0.43151600  0.75237600  1
  C  1084  1  0.45640600  0.43107100  0.77463500  1
  C  1085  1  0.45593500  0.45266300  0.79334100  1
  C  1086  1  0.47356700  0.47470400  0.78873200  1
  C  1087  1  0.54642700  0.51984200  0.73181600  1
  C  1088  1  0.56370100  0.51916300  0.70912500  1
  C  1089  1  0.56344900  0.49608200  0.69239300  1
  C  1090  1  0.54595000  0.47453200  0.69795300  1
  C  1103  1  0.50993300  0.49972700  0.76212900  1
  C  1104  1  0.50988500  0.45224700  0.72449000  1
  C  1107  1  0.50959000  0.54719700  0.79977900  1
  C  1110  1  0.43995200  0.45190400  0.81649700  1
  C  1111  1  0.44032800  0.54753600  0.70727200  1
  C  1112  1  0.57979700  0.54103800  0.70271800  1
  C  1116  1  0.57942300  0.45842600  0.82198500  1
  C  1118  1  0.00699700  0.47473600  0.25784800  1
  C  1119  1  0.00709400  0.45259100  0.27604900  1
  C  1120  1  0.97061200  0.47455900  0.30411400  1
  C  1121  1  0.97031500  0.49732900  0.28666000  1
  C  1122  1  0.95234400  0.51891500  0.29277700  1
  C  1123  1  0.93524000  0.51823400  0.31560100  1
  C  1124  1  0.93565200  0.49515700  0.33234000  1
  C  1125  1  0.95313400  0.47362700  0.32665600  1
  C  1126  1  0.02472200  0.43060700  0.27162500  1
  C  1127  1  0.04203200  0.43016400  0.24922200  1
  C  1128  1  0.04234900  0.45176400  0.23052100  1
  C  1129  1  0.02475200  0.47379900  0.23526900  1
  C  1130  1  0.97009900  0.50029500  0.23785000  1
  C  1131  1  0.97021600  0.52307500  0.22040800  1
  C  1132  1  0.00694500  0.54505300  0.24813900  1
  C  1133  1  0.00702000  0.52290500  0.26633900  1
  C  1134  1  0.02460600  0.56704100  0.25240600  1
  C  1135  1  0.04210500  0.56749400  0.27466100  1
  C  1136  1  0.04258700  0.54590400  0.29337000  1
  C  1137  1  0.02496800  0.52385300  0.28876200  1
  C  1138  1  0.95210600  0.47868700  0.23187500  1
  C  1139  1  0.93481300  0.47936600  0.20919800  1
  C  1140  1  0.93504400  0.50244900  0.19246700  1
  C  1141  1  0.95253800  0.52400300  0.19802200  1
  C  1154  1  0.98860400  0.49881600  0.26217400  1
  C  1155  1  0.98861000  0.54630200  0.22454000  1
  C  1158  1  0.98898200  0.45134400  0.29982000  1
  C  1161  1  0.05856600  0.54668400  0.31652700  1
  C  1162  1  0.05817600  0.45100900  0.20726400  1
  C  1163  1  0.91872300  0.45748700  0.20279700  1
  C  1167  1  0.91908500  0.54006400  0.32204900  1
  C  1169  1  0.82980500  0.83625300  0.42089600  1
  C  1170  1  0.83906600  0.86274500  0.42597800  1
  C  1172  1  0.86713600  0.86182800  0.38666900  1
  C  1173  1  0.85897900  0.83489100  0.38093500  1
  C  1174  1  0.84013200  0.82241000  0.39826400  1
  C  1176  1  0.88443400  0.87555300  0.36861900  1
  C  1177  1  0.90688100  0.91629100  0.35552500  1
  C  1178  1  0.91650100  0.90418500  0.33155900  1
  C  1179  1  0.91012400  0.87685900  0.32672100  1
  C  1182  1  0.89386000  0.86225000  0.34497600  1
  C  1183  1  0.88625100  0.83525900  0.33984800  1
  C  1184  1  0.86883700  0.82169100  0.35767100  1
  C  1191  1  0.66875600  0.16232900  0.92085100  1
  C  1192  1  0.65944900  0.13586200  0.92597500  1
  C  1194  1  0.63134100  0.13679700  0.88669100  1
  C  1195  1  0.63953400  0.16371800  0.88093200  1
  C  1196  1  0.65841400  0.17618300  0.89823400  1
  C  1198  1  0.61401000  0.12308400  0.86866500  1
  C  1199  1  0.59151500  0.08236200  0.85560600  1
  C  1200  1  0.58190300  0.09446300  0.83163400  1
  C  1201  1  0.58829400  0.12178200  0.82678200  1
  C  1204  1  0.60458000  0.13638500  0.84502200  1
  C  1205  1  0.61222400  0.16336300  0.83987000  1
  C  1206  1  0.62966700  0.17691900  0.85767300  1
  C  1213  1  0.40435700  0.57105400  0.68448600  1
  C  1214  1  0.38296700  0.58883700  0.69058200  1
  C  1216  1  0.37137700  0.59348900  0.64397700  1
  C  1217  1  0.39228400  0.57526100  0.63653100  1
  C  1218  1  0.40862500  0.56410500  0.65709500  1
  C  1220  1  0.35607500  0.60668500  0.62384600  1
  C  1221  1  0.32330100  0.64018100  0.61211400  1
  C  1222  1  0.32853000  0.63675400  0.58426700  1
  C  1223  1  0.34766300  0.61709500  0.57653200  1
  C  1226  1  0.36167400  0.60181000  0.59611300  1
  C  1227  1  0.38189800  0.58304600  0.58887800  1
  C  1228  1  0.39707500  0.56985400  0.60893800  1
  C  1235  1  0.09414500  0.42750700  0.18446200  1
  C  1236  1  0.11555500  0.40974800  0.19055200  1
  C  1238  1  0.12711400  0.40507400  0.14394300  1
  C  1239  1  0.10616400  0.42325800  0.13649700  1
  C  1240  1  0.08984200  0.43442800  0.15706800  1
  C  1242  1  0.14239400  0.39186000  0.12380500  1
  C  1243  1  0.17520100  0.35839100  0.11208400  1
  C  1244  1  0.16989200  0.36174300  0.08424420  1
  C  1245  1  0.15073700  0.38137300  0.07649520  1
  C  1248  1  0.13673800  0.39667300  0.09607320  1
  C  1249  1  0.11647300  0.41539200  0.08884120  1
  C  1250  1  0.10131900  0.42860600  0.10890400  1
  C  1257  1  0.66727300  0.83583100  0.60160700  1
  C  1258  1  0.65804700  0.86237300  0.59672800  1
  C  1260  1  0.63017500  0.86128800  0.63617200  1
  C  1261  1  0.63827700  0.83428900  0.64169000  1
  C  1262  1  0.65701000  0.82186800  0.62419600  1
  C  1264  1  0.61307200  0.87497600  0.65443600  1
  C  1265  1  0.59097500  0.91575500  0.66798600  1
  C  1266  1  0.58150100  0.90355100  0.69196200  1
  C  1267  1  0.58775000  0.87615600  0.69656100  1
  C  1270  1  0.60377400  0.86157300  0.67807300  1
  C  1271  1  0.61129400  0.83451300  0.68297100  1
  C  1272  1  0.62852400  0.82098500  0.66493900  1
  C  1279  1  0.83127000  0.16275100  0.10159700  1
  C  1280  1  0.84055900  0.13623900  0.09667720  1
  C  1282  1  0.86836000  0.13730300  0.13617600  1
  C  1283  1  0.86020100  0.16427800  0.14172400  1
  C  1284  1  0.84148600  0.17670200  0.12421400  1
  C  1286  1  0.88546700  0.12361900  0.15443600  1
  C  1287  1  0.90764900  0.08286800  0.16793300  1
  C  1288  1  0.91706900  0.09505000  0.19194200  1
  C  1289  1  0.91075200  0.12242300  0.19658300  1
  C  1292  1  0.89471500  0.13700100  0.17810500  1
  C  1293  1  0.88712500  0.16403400  0.18304300  1
  C  1294  1  0.86990000  0.17756300  0.16500900  1
  C  1301  1  0.09425800  0.57056300  0.33936200  1
  C  1302  1  0.11542500  0.58862100  0.33329900  1
  C  1304  1  0.12705900  0.59320000  0.37990000  1
  C  1305  1  0.10638000  0.57469900  0.38731100  1
  C  1306  1  0.09012800  0.56344500  0.36673100  1
  C  1308  1  0.14224100  0.60649300  0.40005600  1
  C  1309  1  0.17463600  0.64032800  0.41185700  1
  C  1310  1  0.16950000  0.63673300  0.43970200  1
  C  1311  1  0.15061500  0.61682100  0.44739500  1
  C  1314  1  0.13675100  0.60144600  0.42778000  1
  C  1315  1  0.11676200  0.58241600  0.43497500  1
  C  1316  1  0.10170600  0.56912400  0.41488900  1
  C  1323  1  0.40428400  0.42801600  0.83935800  1
  C  1324  1  0.38309200  0.40998200  0.83330700  1
  C  1326  1  0.37150800  0.40537600  0.87991600  1
  C  1327  1  0.39223800  0.42382600  0.88732100  1
  C  1328  1  0.40846500  0.43509600  0.86672900  1
  C  1330  1  0.35634800  0.39207000  0.90008100  1
  C  1331  1  0.32389700  0.35828600  0.91188200  1
  C  1332  1  0.32911800  0.36180700  0.93971700  1
  C  1333  1  0.34804100  0.38167800  0.94742000  1
  C  1336  1  0.36190200  0.39705700  0.92780400  1
  C  1337  1  0.38194300  0.41603200  0.93499300  1
  C  1338  1  0.39697800  0.42934000  0.91490000  1
  C  1345  1  0.17468500  0.17380400  0.10636000  1
  C  1346  1  0.15708400  0.15584000  0.09287820  1
  C  1348  1  0.13773600  0.14126000  0.13465400  1
  C  1349  1  0.15445300  0.15940300  0.14931100  1
  C  1350  1  0.17282100  0.17565700  0.13475100  1
  C  1352  1  0.12056000  0.12331600  0.14862800  1
  C  1353  1  0.09001300  0.08608700  0.14713900  1
  C  1354  1  0.08927000  0.08438700  0.17554900  1
  C  1355  1  0.10411200  0.10357100  0.19062600  1
  C  1358  1  0.11999500  0.12324300  0.17735100  1
  C  1359  1  0.13604100  0.14194300  0.19172000  1
  C  1360  1  0.15310900  0.15991100  0.17780600  1
  C  1367  1  0.32387300  0.82465300  0.60644100  1
  C  1368  1  0.34155700  0.84253900  0.59296300  1
  C  1370  1  0.36088200  0.85711400  0.63474900  1
  C  1371  1  0.34408500  0.83904100  0.64940400  1
  C  1372  1  0.32569900  0.82281400  0.63483600  1
  C  1374  1  0.37809300  0.87501800  0.64873000  1
  C  1375  1  0.40875600  0.91215200  0.64724200  1
  C  1376  1  0.40948300  0.91386800  0.67565200  1
  C  1377  1  0.39452900  0.89476900  0.69072800  1
  C  1380  1  0.37861500  0.87512500  0.67745200  1
  C  1381  1  0.36247400  0.85650500  0.69181900  1
  C  1382  1  0.34538000  0.83856400  0.67790100  1
  C  1389  1  0.59037300  0.42889900  0.85905300  1
  C  1390  1  0.61562600  0.41775600  0.85181500  1
  C  1392  1  0.61655200  0.39039100  0.89167400  1
  C  1393  1  0.59092900  0.40063100  0.89969700  1
  C  1394  1  0.57817300  0.42003100  0.88318900  1
  C  1396  1  0.63031800  0.37182000  0.90844500  1
  C  1397  1  0.66956600  0.34501400  0.91767700  1
  C  1398  1  0.65855600  0.33604500  0.94239500  1
  C  1399  1  0.63264600  0.34524500  0.94977200  1
  C  1402  1  0.61826700  0.36328900  0.93308600  1
  C  1403  1  0.59262600  0.37320200  0.94062500  1
  C  1404  1  0.57908200  0.39182900  0.92407800  1
  C  1411  1  0.90811300  0.56957900  0.35911900  1
  C  1412  1  0.88286600  0.58073100  0.35187400  1
  C  1414  1  0.88195700  0.60813000  0.39170800  1
  C  1415  1  0.90756200  0.59785900  0.39975300  1
  C  1416  1  0.92031000  0.57844300  0.38325700  1
  C  1418  1  0.86819700  0.62671300  0.40847000  1
  C  1419  1  0.82896700  0.65355500  0.41767500  1
  C  1420  1  0.83996500  0.66251000  0.44240100  1
  C  1421  1  0.86586300  0.65329000  0.44979400  1
  C  1424  1  0.88023700  0.63523400  0.43311900  1
  C  1425  1  0.90586200  0.62529500  0.44067700  1
  C  1426  1  0.91940000  0.60665300  0.42414100  1
  C  1433  1  0.32465300  0.17316600  0.91828700  1
  C  1434  1  0.34209300  0.15507400  0.93180300  1
  C  1436  1  0.36132500  0.14025100  0.89005900  1
  C  1437  1  0.34477000  0.15851400  0.87536500  1
  C  1438  1  0.32653600  0.17494800  0.88989100  1
  C  1440  1  0.37835400  0.12214100  0.87611700  1
  C  1441  1  0.40863500  0.08469600  0.87766500  1
  C  1442  1  0.40939900  0.08296800  0.84925900  1
  C  1443  1  0.39469700  0.10223900  0.83415100  1
  C  1446  1  0.37893800  0.12203200  0.84739400  1
  C  1447  1  0.36305600  0.14084200  0.83299200  1
  C  1448  1  0.34612600  0.15896700  0.84687100  1
  C  1455  1  0.17388100  0.82534000  0.41829200  1
  C  1456  1  0.15637800  0.84338000  0.43180000  1
  C  1458  1  0.13714300  0.85815800  0.39004200  1
  C  1459  1  0.15375800  0.83994100  0.37535900  1
  C  1460  1  0.17201400  0.82354100  0.38989700  1
  C  1462  1  0.12007400  0.87622200  0.37608800  1
  C  1463  1  0.08969600  0.91358900  0.37761500  1
  C  1464  1  0.08892800  0.91530300  0.34920800  1
  C  1465  1  0.10371900  0.89609100  0.33411300  1
  C  1468  1  0.11951100  0.87633100  0.34736500  1
  C  1469  1  0.13546800  0.85757600  0.33297400  1
  C  1470  1  0.15242500  0.83948600  0.34686400  1
  C  1477  1  0.90808700  0.42774600  0.16581000  1
  C  1478  1  0.88263000  0.41687100  0.17273400  1
  C  1480  1  0.88204600  0.38930000  0.13301100  1
  C  1481  1  0.90789100  0.39924300  0.12533100  1
  C  1482  1  0.92057600  0.41861400  0.14192200  1
  C  1484  1  0.86832600  0.37082700  0.11609300  1
  C  1485  1  0.82886400  0.34454800  0.10628100  1
  C  1486  1  0.84012600  0.33540800  0.08174320  1
  C  1487  1  0.86627900  0.34422400  0.07477020  1
  C  1490  1  0.88064300  0.36209200  0.09165620  1
  C  1491  1  0.90650900  0.37168200  0.08447920  1
  C  1492  1  0.92000900  0.39021700  0.10116500  1
  C  1499  1  0.59044600  0.57076300  0.66572100  1
  C  1500  1  0.61589900  0.58164400  0.67264500  1
  C  1502  1  0.61648100  0.60922100  0.63292900  1
  C  1503  1  0.59065200  0.59924900  0.62522800  1
  C  1504  1  0.57796700  0.57987600  0.64182100  1
  C  1506  1  0.63019900  0.62769300  0.61601000  1
  C  1507  1  0.66964300  0.65401200  0.60622600  1
  C  1508  1  0.65839600  0.66312400  0.58167000  1
  C  1509  1  0.63225800  0.65428000  0.57467700  1
  C  1512  1  0.61789800  0.63640600  0.59155900  1
  C  1513  1  0.59204600  0.62678600  0.58436200  1
  C  1514  1  0.57854600  0.60825100  0.60104800  1
  N  411  1  0.85694200  0.87448900  0.14615900  1
  N  421  1  0.89136300  0.90181300  0.11020200  1
  N  429  1  0.93066900  0.91661800  0.04999400  1
  N  430  1  0.80919500  0.82491300  0.17075400  1
  N  433  1  0.64154500  0.12413300  0.64617600  1
  N  443  1  0.60705700  0.09683300  0.61026600  1
  N  451  1  0.56772000  0.08202800  0.55007800  1
  N  452  1  0.68942200  0.17362200  0.67065700  1
  N  455  1  0.36760700  0.59940300  0.40784900  1
  N  465  1  0.33720900  0.62549100  0.36791400  1
  N  473  1  0.31958900  0.65316700  0.30243400  1
  N  474  1  0.42108200  0.56475600  0.44178700  1
  N  477  1  0.13092500  0.39920100  0.90781600  1
  N  487  1  0.16131100  0.37310700  0.86787900  1
  N  495  1  0.17889200  0.34536000  0.80241200  1
  N  496  1  0.07742600  0.43379500  0.94177000  1
  N  499  1  0.64029400  0.87405800  0.35135700  1
  N  509  1  0.60625900  0.90130200  0.38772800  1
  N  517  1  0.56759100  0.91595500  0.44838600  1
  N  518  1  0.68795100  0.82464500  0.32637200  1
  N  521  1  0.85829800  0.12455200  0.85132300  1
  N  531  1  0.89234700  0.09731500  0.88768900  1
  N  539  1  0.93101900  0.08265200  0.94834300  1
  N  540  1  0.81059700  0.17393200  0.82634800  1
  N  543  1  0.13070500  0.59927600  0.09069300  1
  N  553  1  0.16086800  0.62554700  0.13067300  1
  N  561  1  0.17830100  0.65317100  0.19622700  1
  N  562  1  0.07753600  0.56419400  0.05673100  1
  N  565  1  0.36781100  0.39934600  0.59070600  1
  N  575  1  0.33765300  0.37308000  0.63069600  1
  N  583  1  0.32024400  0.34541400  0.69624800  1
  N  584  1  0.42098500  0.43439100  0.55671000  1
  N  587  1  0.13968300  0.14033600  0.84458400  1
  N  597  1  0.10555800  0.10493400  0.87216700  1
  N  605  1  0.07606100  0.06357600  0.92318500  1
  N  606  1  0.19446700  0.18743900  0.83188800  1
  N  609  1  0.35898100  0.85801100  0.34467700  1
  N  619  1  0.39316900  0.89334100  0.37226800  1
  N  627  1  0.42265600  0.93471000  0.42327400  1
  N  628  1  0.30407300  0.81105600  0.33195500  1
  N  631  1  0.62770700  0.39935200  0.60551500  1
  N  641  1  0.65529700  0.36232900  0.63917200  1
  N  649  1  0.67063300  0.31981100  0.69708700  1
  N  650  1  0.57820100  0.44879800  0.58334500  1
  N  653  1  0.87080500  0.59916900  0.10554700  1
  N  663  1  0.84323400  0.63623000  0.13917700  1
  N  671  1  0.82789200  0.67875400  0.19708700  1
  N  672  1  0.92026700  0.54966000  0.08342400  1
  N  675  1  0.35936300  0.13939200  0.65477500  1
  N  685  1  0.39321400  0.10366500  0.62725500  1
  N  693  1  0.42260300  0.06214400  0.57628300  1
  N  694  1  0.30494600  0.18694000  0.66736200  1
  N  697  1  0.13908200  0.85902100  0.15476000  1
  N  707  1  0.10515900  0.89466200  0.12721600  1
  N  715  1  0.07576200  0.93615100  0.07623300  1
  N  716  1  0.19361200  0.81161200  0.16738100  1
  N  719  1  0.87062100  0.39849700  0.89359300  1
  N  729  1  0.84312100  0.36168800  0.85963300  1
  N  737  1  0.82802700  0.31948200  0.80143000  1
  N  738  1  0.92017200  0.44769300  0.91616300  1
  N  741  1  0.62789500  0.60003900  0.39352300  1
  N  751  1  0.65538800  0.63686700  0.35957500  1
  N  759  1  0.67049000  0.67906900  0.30137200  1
  N  760  1  0.57836100  0.55081800  0.41607900  1
  N  1171  1  0.85694200  0.87448900  0.40883600  1
  N  1181  1  0.89136300  0.90181300  0.37287900  1
  N  1189  1  0.93066900  0.91661800  0.31267100  1
  N  1190  1  0.80919500  0.82491300  0.43343100  1
  N  1193  1  0.64154500  0.12413300  0.90885300  1
  N  1203  1  0.60705700  0.09683300  0.87294300  1
  N  1211  1  0.56772000  0.08202800  0.81275500  1
  N  1212  1  0.68942200  0.17362200  0.93333400  1
  N  1215  1  0.36760700  0.59940300  0.67052600  1
  N  1225  1  0.33720900  0.62549100  0.63059100  1
  N  1233  1  0.31958900  0.65316700  0.56511100  1
  N  1234  1  0.42108200  0.56475600  0.70446400  1
  N  1237  1  0.13092500  0.39920100  0.17049300  1
  N  1247  1  0.16131100  0.37310700  0.13055600  1
  N  1255  1  0.17889200  0.34536000  0.06508920  1
  N  1256  1  0.07742600  0.43379500  0.20444700  1
  N  1259  1  0.64029400  0.87405800  0.61403400  1
  N  1269  1  0.60625900  0.90130200  0.65040500  1
  N  1277  1  0.56759100  0.91595500  0.71106300  1
  N  1278  1  0.68795100  0.82464500  0.58904900  1
  N  1281  1  0.85829800  0.12455200  0.11400000  1
  N  1291  1  0.89234700  0.09731500  0.15036600  1
  N  1299  1  0.93101900  0.08265200  0.21102000  1
  N  1300  1  0.81059700  0.17393200  0.08902520  1
  N  1303  1  0.13070500  0.59927600  0.35337000  1
  N  1313  1  0.16086800  0.62554700  0.39335000  1
  N  1321  1  0.17830100  0.65317100  0.45890400  1
  N  1322  1  0.07753600  0.56419400  0.31940800  1
  N  1325  1  0.36781100  0.39934600  0.85338300  1
  N  1335  1  0.33765300  0.37308000  0.89337300  1
  N  1343  1  0.32024400  0.34541400  0.95892500  1
  N  1344  1  0.42098500  0.43439100  0.81938700  1
  N  1347  1  0.13968300  0.14033600  0.10726100  1
  N  1357  1  0.10555800  0.10493400  0.13484400  1
  N  1365  1  0.07606100  0.06357600  0.18586200  1
  N  1366  1  0.19446700  0.18743900  0.09456520  1
  N  1369  1  0.35898100  0.85801100  0.60735400  1
  N  1379  1  0.39316900  0.89334100  0.63494500  1
  N  1387  1  0.42265600  0.93471000  0.68595100  1
  N  1388  1  0.30407300  0.81105600  0.59463200  1
  N  1391  1  0.62770700  0.39935200  0.86819200  1
  N  1401  1  0.65529700  0.36232900  0.90184900  1
  N  1409  1  0.67063300  0.31981100  0.95976400  1
  N  1410  1  0.57820100  0.44879800  0.84602200  1
  N  1413  1  0.87080500  0.59916900  0.36822400  1
  N  1423  1  0.84323400  0.63623000  0.40185400  1
  N  1431  1  0.82789200  0.67875400  0.45976400  1
  N  1432  1  0.92026700  0.54966000  0.34610100  1
  N  1435  1  0.35936300  0.13939200  0.91745200  1
  N  1445  1  0.39321400  0.10366500  0.88993200  1
  N  1453  1  0.42260300  0.06214400  0.83896000  1
  N  1454  1  0.30494600  0.18694000  0.93003900  1
  N  1457  1  0.13908200  0.85902100  0.41743700  1
  N  1467  1  0.10515900  0.89466200  0.38989300  1
  N  1475  1  0.07576200  0.93615100  0.33891000  1
  N  1476  1  0.19361200  0.81161200  0.43005800  1
  N  1479  1  0.87062100  0.39849700  0.15627000  1
  N  1489  1  0.84312100  0.36168800  0.12231000  1
  N  1497  1  0.82802700  0.31948200  0.06410720  1
  N  1498  1  0.92017200  0.44769300  0.17884000  1
  N  1501  1  0.62789500  0.60003900  0.65620000  1
  N  1511  1  0.65538800  0.63686700  0.62225200  1
  N  1519  1  0.67049000  0.67906900  0.56404900  1
  N  1520  1  0.57836100  0.55081800  0.67875600  1
