# generated using pymatgen
data_H12C19N4
_symmetry_space_group_name_H-M   'P 1'
_cell_length_a   10.00253333
_cell_length_b   83.21860000
_cell_length_c   83.21860000
_cell_angle_alpha   120.00000000
_cell_angle_beta   90.00000000
_cell_angle_gamma   90.00000000
_symmetry_Int_Tables_number   1
_chemical_formula_structural   H12C19N4
_chemical_formula_sum   'H288 C456 N96'
_cell_volume   59990.35744783
_cell_formula_units_Z   24
loop_
 _symmetry_equiv_pos_site_id
 _symmetry_equiv_pos_as_xyz
  1  'x, y, z'
loop_
 _atom_site_type_symbol
 _atom_site_label
 _atom_site_symmetry_multiplicity
 _atom_site_fract_x
 _atom_site_fract_y
 _atom_site_fract_z
 _atom_site_occupancy
  C  1  1  0.00187400  0.98345300  0.98269200  1
  C  2  1  0.00333400  0.00084300  0.98351100  1
  C  3  1  0.00197200  0.01755700  0.00068400  1
  C  4  1  0.00332100  0.01673800  0.01725400  1
  C  5  1  0.00188400  0.99956600  0.01679600  1
  C  6  1  0.00328500  0.98299500  0.99940600  1
  C  13  1  0.99258500  0.01881900  0.22009700  1
  C  14  1  0.00340500  0.01777400  0.20271800  1
  C  15  1  0.01384900  0.00042400  0.18614800  1
  C  16  1  0.01367000  0.98403700  0.18727300  1
  C  17  1  0.00972100  0.98483500  0.20460600  1
  C  18  1  0.99759900  0.00229200  0.22092000  1
  C  25  1  0.99266500  0.20156700  0.98138400  1
  C  26  1  0.00335400  0.18524300  0.98245100  1
  C  27  1  0.01406100  0.18604000  0.99980500  1
  C  28  1  0.01380000  0.20356200  0.01618300  1
  C  29  1  0.00980100  0.22008700  0.01536500  1
  C  30  1  0.99769300  0.21892500  0.99789900  1
  C  37  1  0.99283500  0.78013400  0.79871000  1
  C  38  1  0.00367200  0.79752700  0.81502800  1
  C  39  1  0.01404000  0.81408100  0.81421700  1
  C  40  1  0.01375600  0.81292500  0.79669200  1
  C  41  1  0.00977100  0.79557600  0.78017200  1
  C  42  1  0.99774200  0.77927800  0.78134700  1
  C  49  1  0.99218600  0.83276600  0.27088700  1
  C  50  1  0.98697500  0.84568600  0.26465400  1
  C  51  1  0.98807500  0.83969400  0.24545800  1
  C  52  1  0.99573500  0.82051800  0.23251400  1
  C  53  1  0.99999400  0.80737300  0.23849200  1
  C  54  1  0.99531400  0.81364900  0.25770300  1
  C  61  1  0.99216900  0.43842300  0.16749400  1
  C  62  1  0.98684500  0.41927400  0.15456400  1
  C  63  1  0.98811400  0.40606100  0.16054300  1
  C  64  1  0.99579200  0.41227700  0.17971600  1
  C  65  1  0.00001300  0.43139700  0.19287000  1
  C  66  1  0.99538200  0.44434300  0.18660800  1
  C  73  1  0.99216500  0.72938200  0.56182800  1
  C  74  1  0.98685400  0.73559400  0.58097500  1
  C  75  1  0.98798400  0.75478500  0.59419500  1
  C  76  1  0.99578300  0.76774700  0.58798700  1
  C  77  1  0.00008633  0.76178800  0.56886700  1
  C  78  1  0.99542300  0.74258200  0.55591600  1
  C  85  1  0.00894700  0.56177700  0.72929300  1
  C  86  1  0.01503000  0.58086500  0.73526500  1
  C  87  1  0.01481500  0.59424800  0.75440300  1
  C  88  1  0.00750100  0.58827500  0.76755200  1
  C  89  1  0.00254400  0.56921100  0.76181800  1
  C  90  1  0.00612300  0.55608200  0.74265900  1
  C  97  1  0.00892300  0.27095300  0.83242000  1
  C  98  1  0.01516000  0.26497400  0.84552900  1
  C  99  1  0.01514100  0.24583400  0.83976700  1
  C  100  1  0.00757400  0.23269300  0.82064600  1
  C  101  1  0.00236200  0.23843100  0.80732000  1
  C  102  1  0.00593400  0.25759400  0.81335900  1
  C  109  1  0.00897700  0.16784200  0.43848200  1
  C  110  1  0.01513200  0.15473600  0.41939300  1
  C  111  1  0.01487900  0.16050400  0.40601900  1
  C  112  1  0.00755200  0.17962900  0.41200600  1
  C  113  1  0.00258300  0.19294800  0.43107100  1
  C  114  1  0.00614300  0.18690400  0.44419100  1
  C  121  1  0.00442400  0.90284100  0.48918300  1
  C  122  1  0.01051100  0.89048600  0.49607400  1
  C  123  1  0.01077200  0.87109900  0.48380700  1
  C  124  1  0.01102200  0.86416600  0.46447200  1
  C  125  1  0.00383100  0.87636200  0.45733000  1
  C  126  1  0.00294200  0.89569900  0.46983100  1
  C  133  1  0.00439400  0.58664200  0.09739300  1
  C  134  1  0.01051000  0.60588900  0.10975200  1
  C  135  1  0.01090000  0.61300400  0.12913800  1
  C  136  1  0.01131300  0.60059500  0.13606500  1
  C  137  1  0.00415300  0.58125600  0.12386200  1
  C  138  1  0.00311200  0.57442800  0.10452700  1
  C  145  1  0.00421500  0.51106200  0.41359300  1
  C  146  1  0.01026200  0.50417800  0.39434700  1
  C  147  1  0.01064100  0.51645300  0.38723700  1
  C  148  1  0.01106200  0.53578700  0.39964800  1
  C  149  1  0.00391400  0.54292000  0.41898600  1
  C  150  1  0.00290200  0.53040900  0.42581100  1
  C  157  1  0.01010000  0.41413700  0.51154500  1
  C  158  1  0.00560200  0.39480700  0.50426500  1
  C  159  1  0.00097400  0.38724200  0.51614900  1
  C  160  1  0.99564400  0.39927300  0.53553300  1
  C  161  1  0.00129500  0.41867500  0.54311500  1
  C  162  1  0.00543200  0.42594000  0.53098400  1
  C  169  1  0.00994100  0.48869900  0.90251000  1
  C  170  1  0.00559400  0.49598400  0.89046300  1
  C  171  1  0.00113300  0.48410600  0.87101200  1
  C  172  1  0.99584400  0.46472000  0.86365300  1
  C  173  1  0.00143400  0.45713300  0.87546900  1
  C  174  1  0.00544400  0.46926000  0.89486600  1
  C  181  1  0.01015200  0.09772600  0.58613000  1
  C  182  1  0.00568500  0.10977900  0.60546100  1
  C  183  1  0.00102400  0.12922700  0.61302300  1
  C  184  1  0.99562500  0.13657700  0.60099000  1
  C  185  1  0.00125300  0.12475600  0.58158900  1
  C  186  1  0.00542200  0.10536000  0.57432700  1
  C  193  1  0.04590100  0.00538200  0.14557300  1
  C  194  1  0.15405400  0.00662700  0.13513800  1
  C  196  1  0.00790300  0.99957900  0.10946700  1
  C  197  1  0.89682800  0.99805600  0.11922000  1
  C  198  1  0.91746200  0.00106600  0.13729500  1
  C  200  1  0.99093500  0.99695900  0.09146100  1
  C  201  1  0.08525200  0.99632300  0.06475700  1
  C  202  1  0.96042200  0.99194900  0.05556000  1
  C  203  1  0.84916100  0.99003000  0.06495900  1
  C  205  1  0.86256800  0.99263000  0.08300900  1
  C  206  1  0.75258900  0.99107000  0.09278000  1
  C  207  1  0.76949000  0.99382400  0.11076400  1
  C  212  1  0.29502000  0.01074300  0.14136700  1
  C  216  1  0.05948100  0.00964900  0.16384300  1
  C  217  1  0.94643700  0.98914300  0.03778400  1
  C  220  1  0.04603300  0.14051700  0.99487000  1
  C  221  1  0.15421400  0.12884600  0.99364100  1
  C  223  1  0.00802200  0.11022000  0.00068100  1
  C  224  1  0.89695300  0.12149700  0.00220300  1
  C  225  1  0.91760300  0.13656300  0.99919400  1
  C  227  1  0.99103500  0.09483200  0.00329800  1
  C  228  1  0.08534300  0.06876500  0.00393500  1
  C  229  1  0.96049400  0.06393500  0.00829700  1
  C  230  1  0.84923000  0.07525100  0.01021100  1
  C  232  1  0.86265700  0.09070500  0.00761700  1
  C  233  1  0.75267500  0.10203500  0.00917400  1
  C  234  1  0.76960100  0.11727000  0.00642800  1
  C  239  1  0.29520000  0.13096200  0.98953500  1
  C  243  1  0.05970800  0.15452400  0.99060900  1
  C  244  1  0.94653500  0.04897000  0.01110900  1
  C  247  1  0.04619400  0.85468400  0.85973300  1
  C  248  1  0.15435400  0.86512900  0.87140400  1
  C  250  1  0.00811400  0.89078900  0.89003000  1
  C  251  1  0.89706000  0.88103000  0.87875300  1
  C  252  1  0.91774300  0.86295600  0.86368500  1
  C  254  1  0.99110300  0.90879400  0.90541900  1
  C  255  1  0.08536300  0.93550100  0.93148600  1
  C  256  1  0.96050300  0.94468900  0.93631300  1
  C  257  1  0.84925100  0.93528300  0.92499500  1
  C  259  1  0.86270600  0.91723500  0.90954200  1
  C  260  1  0.75274300  0.90745800  0.89821200  1
  C  261  1  0.76969200  0.88947700  0.88297700  1
  C  266  1  0.29533900  0.85890900  0.86929400  1
  C  270  1  0.05985900  0.83641300  0.84572800  1
  C  271  1  0.94650500  0.96246500  0.95128000  1
  C  274  1  0.95108500  0.87801600  0.23723400  1
  C  275  1  0.84858000  0.88483300  0.23036800  1
  C  277  1  0.00485400  0.90489700  0.22690700  1
  C  278  1  0.11098600  0.89838300  0.23345200  1
  C  279  1  0.08244400  0.88491400  0.23853000  1
  C  281  1  0.02819700  0.91908400  0.22262500  1
  C  282  1  0.94211700  0.94027000  0.21367700  1
  C  283  1  0.06792800  0.94898400  0.21617900  1
  C  284  1  0.17607000  0.94186100  0.22169300  1
  C  286  1  0.15792400  0.92691100  0.22497400  1
  C  287  1  0.26359600  0.92007300  0.23111800  1
  C  288  1  0.24034500  0.90590300  0.23530200  1
  C  293  1  0.70637600  0.87909100  0.22790700  1
  C  297  1  0.92536100  0.86652900  0.24444900  1
  C  298  1  0.08403400  0.96508400  0.21526600  1
  C  301  1  0.95071900  0.35954200  0.12218300  1
  C  302  1  0.84825200  0.34585300  0.11537300  1
  C  304  1  0.00454300  0.32234300  0.09528200  1
  C  305  1  0.11064100  0.33540500  0.10180200  1
  C  306  1  0.08207800  0.35394800  0.11527900  1
  C  308  1  0.02790900  0.30387500  0.08109400  1
  C  309  1  0.94189800  0.27374200  0.05989800  1
  C  310  1  0.06776700  0.26752400  0.05120300  1
  C  311  1  0.17583900  0.28017400  0.05832100  1
  C  313  1  0.15765500  0.29840300  0.07327100  1
  C  314  1  0.26329900  0.31138900  0.08011200  1
  C  315  1  0.24000300  0.32974300  0.09427900  1
  C  320  1  0.70607600  0.34911900  0.12112900  1
  C  324  1  0.92492200  0.37823500  0.13371800  1
  C  325  1  0.08394200  0.25051100  0.03510400  1
  C  328  1  0.95076600  0.76294300  0.64071700  1
  C  329  1  0.84827900  0.76981400  0.65440100  1
  C  331  1  0.00455400  0.77324700  0.67791600  1
  C  332  1  0.11067700  0.76670800  0.66485700  1
  C  333  1  0.08212200  0.76163100  0.64631100  1
  C  335  1  0.02790700  0.77752400  0.69638500  1
  C  336  1  0.94185600  0.78646000  0.72651600  1
  C  337  1  0.06768600  0.78396600  0.73273000  1
  C  338  1  0.17577000  0.77843500  0.72008400  1
  C  340  1  0.15764300  0.77517400  0.70186000  1
  C  341  1  0.26330000  0.76903200  0.68887600  1
  C  342  1  0.24005300  0.76486000  0.67052400  1
  C  347  1  0.70609700  0.77229500  0.65112800  1
  C  351  1  0.92504300  0.75576700  0.62201900  1
  C  352  1  0.08379300  0.78486500  0.74973600  1
  C  355  1  0.04912100  0.64054400  0.76201800  1
  C  356  1  0.14971700  0.65447600  0.76950900  1
  C  358  1  0.99078500  0.67784800  0.77330900  1
  C  359  1  0.88674200  0.66448900  0.76601300  1
  C  360  1  0.91759500  0.64588700  0.76043100  1
  C  362  1  0.96442100  0.69651000  0.77853600  1
  C  363  1  0.04406200  0.72743500  0.79000700  1
  C  364  1  0.91677200  0.73369800  0.78804600  1
  C  365  1  0.81166900  0.72053600  0.78127000  1
  C  367  1  0.83374300  0.70189300  0.77643800  1
  C  368  1  0.73045900  0.68855000  0.76935200  1
  C  369  1  0.75675400  0.66998800  0.76418000  1
  C  374  1  0.29176900  0.65143800  0.77229800  1
  C  378  1  0.07618400  0.62190600  0.75489200  1
  C  379  1  0.89324000  0.75173900  0.79184100  1
  C  382  1  0.04950900  0.23821700  0.87844400  1
  C  383  1  0.15008500  0.23074800  0.88491200  1
  C  385  1  0.99105500  0.22696200  0.90448200  1
  C  386  1  0.88703000  0.23423700  0.89839400  1
  C  387  1  0.91795300  0.23980500  0.88536600  1
  C  389  1  0.96463200  0.22175200  0.91792800  1
  C  390  1  0.04421300  0.21032200  0.93741900  1
  C  391  1  0.91689200  0.21228800  0.94563600  1
  C  392  1  0.81178900  0.21903700  0.93922300  1
  C  394  1  0.83390500  0.22384300  0.92539300  1
  C  395  1  0.73063900  0.23090500  0.91910900  1
  C  396  1  0.75699400  0.23606200  0.90570900  1
  C  401  1  0.29217100  0.22796700  0.87910300  1
  C  405  1  0.07665700  0.24532600  0.86692000  1
  C  406  1  0.89342400  0.20852600  0.95990600  1
  C  409  1  0.04915400  0.12185100  0.35970500  1
  C  410  1  0.14985100  0.11535100  0.34578400  1
  C  412  1  0.99088300  0.09579400  0.32241000  1
  C  413  1  0.88675000  0.10190700  0.33575800  1
  C  414  1  0.91759800  0.11493600  0.35435800  1
  C  416  1  0.96456200  0.08232900  0.30375700  1
  C  417  1  0.04441300  0.06276300  0.27286500  1
  C  418  1  0.91707300  0.05455900  0.26660500  1
  C  419  1  0.81183800  0.06100600  0.27974600  1
  C  421  1  0.83382500  0.07487000  0.29837300  1
  C  422  1  0.73042900  0.08118900  0.31170000  1
  C  423  1  0.75668400  0.09460700  0.33025500  1
  C  428  1  0.29198100  0.12113800  0.34883000  1
  C  432  1  0.07619600  0.13334400  0.37834700  1
  C  433  1  0.89393100  0.04022200  0.24860000  1
  C  436  1  0.04914300  0.75800700  0.21285500  1
  C  437  1  0.15544400  0.74581900  0.20259400  1
  C  439  1  0.00531400  0.71974300  0.18938600  1
  C  440  1  0.89570700  0.73131800  0.19922200  1
  C  441  1  0.91945200  0.75043800  0.21096800  1
  C  443  1  0.98605600  0.70048600  0.17773700  1
  C  444  1  0.07757500  0.67064200  0.15692300  1
  C  445  1  0.95120500  0.66206500  0.15421400  1
  C  446  1  0.84045300  0.67341200  0.16373600  1
  C  448  1  0.85647000  0.69269200  0.17570400  1
  C  449  1  0.74779800  0.70431100  0.18550400  1
  C  450  1  0.76736700  0.72347200  0.19723200  1
  C  455  1  0.29663800  0.75129700  0.20277700  1
  C  459  1  0.06980500  0.77642000  0.22593400  1
  C  460  1  0.93345000  0.64341800  0.14173200  1
  C  463  1  0.04945100  0.45511400  0.24223000  1
  C  464  1  0.15569600  0.45705700  0.25443000  1
  C  466  1  0.00547300  0.46994600  0.28049500  1
  C  467  1  0.89591900  0.46820200  0.26890900  1
  C  468  1  0.91974100  0.46081000  0.24978800  1
  C  470  1  0.98612700  0.47756500  0.29975300  1
  C  471  1  0.07750300  0.48660400  0.32960600  1
  C  472  1  0.95108400  0.49246700  0.33817100  1
  C  473  1  0.84040400  0.49064800  0.32681500  1
  C  475  1  0.85651700  0.48333000  0.30753500  1
  C  476  1  0.74790600  0.48150600  0.29590500  1
  C  477  1  0.76756000  0.47406300  0.27674500  1
  C  482  1  0.29690900  0.45176400  0.24896500  1
  C  486  1  0.07017700  0.44976400  0.22381300  1
  C  487  1  0.93326000  0.49864200  0.35682000  1
  C  490  1  0.04947100  0.78746100  0.54518200  1
  C  491  1  0.15572600  0.79770600  0.54322200  1
  C  493  1  0.00553300  0.81088400  0.53033300  1
  C  494  1  0.89597700  0.80104200  0.53207600  1
  C  495  1  0.91978100  0.78931900  0.53947500  1
  C  497  1  0.98620600  0.82252000  0.52271100  1
  C  498  1  0.07760400  0.84333300  0.51367100  1
  C  499  1  0.95119400  0.84603400  0.50780700  1
  C  500  1  0.84051100  0.83649600  0.50962200  1
  C  502  1  0.85660700  0.82453500  0.51694100  1
  C  503  1  0.74799400  0.81472600  0.51876100  1
  C  504  1  0.76763000  0.80301100  0.52620700  1
  C  509  1  0.29694000  0.79752900  0.54851300  1
  C  513  1  0.07020600  0.77437800  0.55050900  1
  C  514  1  0.93337000  0.85850200  0.50162500  1
  C  517  1  0.95464300  0.54598900  0.78796100  1
  C  518  1  0.84902100  0.54399000  0.79827000  1
  C  520  1  0.00085300  0.53134700  0.81151200  1
  C  521  1  0.10982100  0.53316700  0.80163300  1
  C  522  1  0.08488500  0.54046300  0.78985000  1
  C  524  1  0.02129000  0.52378600  0.82317800  1
  C  525  1  0.93144900  0.51464900  0.84399400  1
  C  526  1  0.05837800  0.50889100  0.84666100  1
  C  527  1  0.16856000  0.51084400  0.83713600  1
  C  529  1  0.15141700  0.51815600  0.82518600  1
  C  530  1  0.25946000  0.52007000  0.81535500  1
  C  531  1  0.23872300  0.52745500  0.80361000  1
  C  536  1  0.70738600  0.54911900  0.79809300  1
  C  540  1  0.93286900  0.55120000  0.77481100  1
  C  541  1  0.07696700  0.50259200  0.85901800  1
  C  544  1  0.95442400  0.21229300  0.75795600  1
  C  545  1  0.84881900  0.20199000  0.74564500  1
  C  547  1  0.00067900  0.18875300  0.71976500  1
  C  548  1  0.10963600  0.19863200  0.73146500  1
  C  549  1  0.08467300  0.21041600  0.75054400  1
  C  551  1  0.02114800  0.17708700  0.70053600  1
  C  552  1  0.93133800  0.15627400  0.67058200  1
  C  553  1  0.05828900  0.15360000  0.66216200  1
  C  554  1  0.16845300  0.16312800  0.67364100  1
  C  556  1  0.15128500  0.17508100  0.69290300  1
  C  557  1  0.25931000  0.18491200  0.70465100  1
  C  558  1  0.23854500  0.19665900  0.72378300  1
  C  563  1  0.70717500  0.20216800  0.75094900  1
  C  567  1  0.93267000  0.22544900  0.77631800  1
  C  568  1  0.07692400  0.14124400  0.64350700  1
  C  571  1  0.95466200  0.24231200  0.45431000  1
  C  572  1  0.84903100  0.25461800  0.45630500  1
  C  574  1  0.00084300  0.28050200  0.46894100  1
  C  575  1  0.10982400  0.26880800  0.46712600  1
  C  576  1  0.08490900  0.24972700  0.45983000  1
  C  578  1  0.02126100  0.29973100  0.47650200  1
  C  579  1  0.93138000  0.32968000  0.48563400  1
  C  580  1  0.05831000  0.33810600  0.49138600  1
  C  581  1  0.16850200  0.32663300  0.48944000  1
  C  583  1  0.15137700  0.30737100  0.48213300  1
  C  584  1  0.25943000  0.29562900  0.48022300  1
  C  585  1  0.23871300  0.27649900  0.47284200  1
  C  590  1  0.70739500  0.24930900  0.45117700  1
  C  594  1  0.93290900  0.22395000  0.44909800  1
  C  595  1  0.07689300  0.35676100  0.49767900  1
  C  598  1  0.95714400  0.86722100  0.41064700  1
  C  599  1  0.85091900  0.86063500  0.39752600  1
  C  601  1  0.00110300  0.85654900  0.37318800  1
  C  602  1  0.11075600  0.86284400  0.38566300  1
  C  603  1  0.08695100  0.86819800  0.40438900  1
  C  605  1  0.02021800  0.85143200  0.35442200  1
  C  606  1  0.92829000  0.84044100  0.32420800  1
  C  607  1  0.05462000  0.84094400  0.31686400  1
  C  608  1  0.16557100  0.84692300  0.32901900  1
  C  610  1  0.14978500  0.85238000  0.34793800  1
  C  611  1  0.25858000  0.85857700  0.36041800  1
  C  612  1  0.23911500  0.86384400  0.37915500  1
  C  617  1  0.70963400  0.85853000  0.40151600  1
  C  621  1  0.93581400  0.87452900  0.42943700  1
  C  622  1  0.07200700  0.83455900  0.29815900  1
  C  625  1  0.95755500  0.54372900  0.13303000  1
  C  626  1  0.85126900  0.53718700  0.13959800  1
  C  628  1  0.00134400  0.51693800  0.14370400  1
  C  629  1  0.11104800  0.52311100  0.13741000  1
  C  630  1  0.08731200  0.53647500  0.13204400  1
  C  632  1  0.02038900  0.50329400  0.14883000  1
  C  633  1  0.92834100  0.48408200  0.15982800  1
  C  634  1  0.05464900  0.47623400  0.15933500  1
  C  635  1  0.16564400  0.48240200  0.15335600  1
  C  637  1  0.14993500  0.49586100  0.14789300  1
  C  638  1  0.25878000  0.50213800  0.14169900  1
  C  639  1  0.23938400  0.51559900  0.13641800  1
  C  644  1  0.70999500  0.54328300  0.14168800  1
  C  648  1  0.93637700  0.55517800  0.12568200  1
  C  649  1  0.07198700  0.46391200  0.16571700  1
  C  652  1  0.95752200  0.58961200  0.45653200  1
  C  653  1  0.85124000  0.60272500  0.46305700  1
  C  655  1  0.00134300  0.62708200  0.48329500  1
  C  656  1  0.11104800  0.61461600  0.47712300  1
  C  657  1  0.08731100  0.59588300  0.46376300  1
  C  659  1  0.02038000  0.64585300  0.49693800  1
  C  660  1  0.92833200  0.67606200  0.51615200  1
  C  661  1  0.05461900  0.68341500  0.52401000  1
  C  662  1  0.16563100  0.67127000  0.51783100  1
  C  664  1  0.14992600  0.65235000  0.50437100  1
  C  665  1  0.25877900  0.63987900  0.49809600  1
  C  666  1  0.23938500  0.62113700  0.48463200  1
  C  671  1  0.70996600  0.59872000  0.45695800  1
  C  675  1  0.93628800  0.57081700  0.44507300  1
  C  676  1  0.07194800  0.70212100  0.53632600  1
  C  679  1  0.04421300  0.45555300  0.59018700  1
  C  680  1  0.14947700  0.46200300  0.60345300  1
  C  682  1  0.99856100  0.48245600  0.62753700  1
  C  683  1  0.88970000  0.47633000  0.61493200  1
  C  684  1  0.91436400  0.46289000  0.59625200  1
  C  686  1  0.97894900  0.49624200  0.64623100  1
  C  687  1  0.07016700  0.51561600  0.67644300  1
  C  688  1  0.94410800  0.52370500  0.68361600  1
  C  689  1  0.83358400  0.51754300  0.67138500  1
  C  691  1  0.84963000  0.50388100  0.65253900  1
  C  692  1  0.74149600  0.49762400  0.63994600  1
  C  693  1  0.76149200  0.48401200  0.62126800  1
  C  698  1  0.29062600  0.45579500  0.59968100  1
  C  702  1  0.06720300  0.44421700  0.57141800  1
  C  703  1  0.92674100  0.53630000  0.70224600  1
  C  706  1  0.04418300  0.41005500  0.86525600  1
  C  707  1  0.14945600  0.39678700  0.85846500  1
  C  709  1  0.99853100  0.37270800  0.85484000  1
  C  710  1  0.88966900  0.38531100  0.86130500  1
  C  711  1  0.91433400  0.40398700  0.86652800  1
  C  713  1  0.97891700  0.35401700  0.84994700  1
  C  714  1  0.07012700  0.32380900  0.83912900  1
  C  715  1  0.94405600  0.31663800  0.84004200  1
  C  716  1  0.83352600  0.32886800  0.84610400  1
  C  718  1  0.84958900  0.34771200  0.85127600  1
  C  719  1  0.74144800  0.36030600  0.85760300  1
  C  720  1  0.76145400  0.37898000  0.86265700  1
  C  725  1  0.29063300  0.40056000  0.85604400  1
  C  729  1  0.06719700  0.42882300  0.87270600  1
  C  730  1  0.92665000  0.29801000  0.83401400  1
  C  733  1  0.04399500  0.13494300  0.54470300  1
  C  734  1  0.14928700  0.14175800  0.53825300  1
  C  736  1  0.99841200  0.14539800  0.51780300  1
  C  737  1  0.88952000  0.13893000  0.52393200  1
  C  738  1  0.91415300  0.13368700  0.53737100  1
  C  740  1  0.97883800  0.15030400  0.50401400  1
  C  741  1  0.07011500  0.16113400  0.48463600  1
  C  742  1  0.94408500  0.16021100  0.47653800  1
  C  743  1  0.83351400  0.15415900  0.48271000  1
  C  745  1  0.84952100  0.14898100  0.49637800  1
  C  746  1  0.74134800  0.14265700  0.50264000  1
  C  747  1  0.76131100  0.13759300  0.51625400  1
  C  752  1  0.29044100  0.14418900  0.54446000  1
  C  756  1  0.06699700  0.12750900  0.55603600  1
  C  757  1  0.92671200  0.16625000  0.46394600  1
  C  760  1  0.05058300  0.04809700  0.55987300  1
  C  761  1  0.15749400  0.03507400  0.55322000  1
  C  763  1  0.00332400  0.00978400  0.54394300  1
  C  764  1  0.89339400  0.02217900  0.55073900  1
  C  765  1  0.91881300  0.04132900  0.55868400  1
  C  767  1  0.98157800  0.99046200  0.53479300  1
  C  768  1  0.07047600  0.95981900  0.51762400  1
  C  769  1  0.94138800  0.95183900  0.51429700  1
  C  770  1  0.83092600  0.96395400  0.52198300  1
  C  772  1  0.84938000  0.98336600  0.53232000  1
  C  773  1  0.74061700  0.99579700  0.53956700  1
  C  774  1  0.76246400  0.01506600  0.54871900  1
  C  779  1  0.30127900  0.03954500  0.55355500  1
  C  783  1  0.06914700  0.06660600  0.56536500  1
  C  784  1  0.92143200  0.93304100  0.50248500  1
  C  787  1  0.05024200  0.51206100  0.95214100  1
  C  788  1  0.15717400  0.51843500  0.96516100  1
  C  790  1  0.00304500  0.53446100  0.99045500  1
  C  791  1  0.89310800  0.52886400  0.97806100  1
  C  792  1  0.91850400  0.51766500  0.95890900  1
  C  794  1  0.98132700  0.54463500  0.00977700  1
  C  795  1  0.07025600  0.55810700  0.04041800  1
  C  796  1  0.94118800  0.56277200  0.04840200  1
  C  797  1  0.83071600  0.55835200  0.03629000  1
  C  799  1  0.84914000  0.54926200  0.01687500  1
  C  800  1  0.74035800  0.54408000  0.00444900  1
  C  801  1  0.76218100  0.53394800  0.98517800  1
  C  806  1  0.30095800  0.51429300  0.96069000  1
  C  810  1  0.06883600  0.49904300  0.93363200  1
  C  811  1  0.92125100  0.56975600  0.06720000  1
  C  814  1  0.05045300  0.44040000  0.48817900  1
  C  815  1  0.15733300  0.44705800  0.48180900  1
  C  817  1  0.00311300  0.45632600  0.46579400  1
  C  818  1  0.89321800  0.44952700  0.47139500  1
  C  819  1  0.91868300  0.44157400  0.48259100  1
  C  821  1  0.98131800  0.46547100  0.45561900  1
  C  822  1  0.07016500  0.48262700  0.44212700  1
  C  823  1  0.94105200  0.48594900  0.43747500  1
  C  824  1  0.83062500  0.47825100  0.44189700  1
  C  826  1  0.84911900  0.46792900  0.45098500  1
  C  827  1  0.74038200  0.46067900  0.45617200  1
  C  828  1  0.76227100  0.45154600  0.46630700  1
  C  833  1  0.30113900  0.44672400  0.48593700  1
  C  837  1  0.06915200  0.43489700  0.50118700  1
  C  838  1  0.92109100  0.49774900  0.43047500  1
  H  7  1  0.00554400  0.02878800  0.02979200  1
  H  8  1  0.00551200  0.97045600  0.99891800  1
  H  9  1  0.00558200  0.00133000  0.97146000  1
  H  19  1  0.01898900  0.97138400  0.17536900  1
  H  20  1  0.99067400  0.00296800  0.23351900  1
  H  21  1  0.99792300  0.02973600  0.20210600  1
  H  31  1  0.01907900  0.20432600  0.02884200  1
  H  32  1  0.99072500  0.23084000  0.99720700  1
  H  33  1  0.99805400  0.17266300  0.97049200  1
  H  43  1  0.01901000  0.82481700  0.79591900  1
  H  44  1  0.99077400  0.76666600  0.76943800  1
  H  45  1  0.99824200  0.79815900  0.82761100  1
  H  55  1  0.99812300  0.81607500  0.21860100  1
  H  56  1  0.99375500  0.80420500  0.26217200  1
  H  57  1  0.98565100  0.85957600  0.27417900  1
  H  67  1  0.99821200  0.40279900  0.18414800  1
  H  68  1  0.99389200  0.45825400  0.19605900  1
  H  69  1  0.98550700  0.41491800  0.14067700  1
  H  79  1  0.99820300  0.78165500  0.59746700  1
  H  80  1  0.99394500  0.73812800  0.54200600  1
  H  81  1  0.98544500  0.72605900  0.58532600  1
  H  91  1  0.00576200  0.59788300  0.78142500  1
  H  92  1  0.00714200  0.54220400  0.73835800  1
  H  93  1  0.01600100  0.58504800  0.72559900  1
  H  103  1  0.00589400  0.21881700  0.81637600  1
  H  104  1  0.00685200  0.26189900  0.80378600  1
  H  105  1  0.01631000  0.27463600  0.85937900  1
  H  115  1  0.00580300  0.18390300  0.40240300  1
  H  116  1  0.00713200  0.19647400  0.45807000  1
  H  117  1  0.01603000  0.14088400  0.41519900  1
  H  127  1  0.01359200  0.85013000  0.45553700  1
  H  128  1  0.00372500  0.90470900  0.46482200  1
  H  129  1  0.01408900  0.89562300  0.51011100  1
  H  139  1  0.01388000  0.60569300  0.15010000  1
  H  140  1  0.00384300  0.56041000  0.09551300  1
  H  141  1  0.01392000  0.61479200  0.10461800  1
  H  151  1  0.01372900  0.54472600  0.39455400  1
  H  152  1  0.00373300  0.53541100  0.43982800  1
  H  153  1  0.01373100  0.49014100  0.38544200  1
  H  163  1  0.99052300  0.39386400  0.54419500  1
  H  164  1  0.00249400  0.44000600  0.53638300  1
  H  165  1  0.00569300  0.38613200  0.49017600  1
  H  175  1  0.99072300  0.45606100  0.84958200  1
  H  176  1  0.00239300  0.46385400  0.90352900  1
  H  177  1  0.00563200  0.51007400  0.89588300  1
  H  187  1  0.99045600  0.15064800  0.60639700  1
  H  188  1  0.00245100  0.09669200  0.56026000  1
  H  189  1  0.00581300  0.10436600  0.61413700  1
  H  199  1  0.83718300  0.00042500  0.14461800  1
  H  208  1  0.65935800  0.98801200  0.08692900  1
  H  209  1  0.68819200  0.99270800  0.11761400  1
  H  210  1  0.75718300  0.98687600  0.05868500  1
  H  211  1  0.16945000  0.99765300  0.05855000  1
  H  213  1  0.31142700  0.01218600  0.15497200  1
  H  214  1  0.32556300  0.02363200  0.14198800  1
  H  215  1  0.35902400  0.99952500  0.13145900  1
  H  218  1  0.88516000  0.97918700  0.02899500  1
  H  219  1  0.10339900  0.02154500  0.17274600  1
  H  226  1  0.83732400  0.14452300  0.99982600  1
  H  235  1  0.65943800  0.09924100  0.01222900  1
  H  236  1  0.68830900  0.12523500  0.00754300  1
  H  237  1  0.75725200  0.07213200  0.01336600  1
  H  238  1  0.16955000  0.06123100  0.00261100  1
  H  240  1  0.31163600  0.14312200  0.98809100  1
  H  241  1  0.32579400  0.11869300  0.97665200  1
  H  242  1  0.35915200  0.13227500  0.00076000  1
  H  245  1  0.88520100  0.05013500  0.02105800  1
  H  246  1  0.10374900  0.15153500  0.97872200  1
  H  253  1  0.83747200  0.85562500  0.85572500  1
  H  262  1  0.65949000  0.91330300  0.90100300  1
  H  263  1  0.68841100  0.88262400  0.87501200  1
  H  264  1  0.75725400  0.94155300  0.92811600  1
  H  265  1  0.16955300  0.94171200  0.93902100  1
  H  267  1  0.31178700  0.84530400  0.85713300  1
  H  268  1  0.32591100  0.85829300  0.88156300  1
  H  269  1  0.35930200  0.86881900  0.86798200  1
  H  272  1  0.88512000  0.97124700  0.95011800  1
  H  273  1  0.10387800  0.82751800  0.84872300  1
  H  280  1  0.15759500  0.88062600  0.24390200  1
  H  289  1  0.35748400  0.92562500  0.23298700  1
  H  290  1  0.31781600  0.90145300  0.24012900  1
  H  291  1  0.26828700  0.94799300  0.22392400  1
  H  292  1  0.85938700  0.94502200  0.21013200  1
  H  294  1  0.68653600  0.86821600  0.23125200  1
  H  295  1  0.67721200  0.87385300  0.21349200  1
  H  296  1  0.64398200  0.89104600  0.23681100  1
  H  299  1  0.15408500  0.97408500  0.22321800  1
  H  300  1  0.85638900  0.87043400  0.25433000  1
  H  307  1  0.15722500  0.36361100  0.11958900  1
  H  316  1  0.35721500  0.30770800  0.07457100  1
  H  317  1  0.31749500  0.33901900  0.09875200  1
  H  318  1  0.26809800  0.27627100  0.05220200  1
  H  319  1  0.85923800  0.26542800  0.05515800  1
  H  321  1  0.68619300  0.36333500  0.13200800  1
  H  322  1  0.67706300  0.33993700  0.12636800  1
  H  323  1  0.64358400  0.34606400  0.10918100  1
  H  326  1  0.15400400  0.24946400  0.02610700  1
  H  327  1  0.85599700  0.38423200  0.12983100  1
  H  334  1  0.15730500  0.75629000  0.63665400  1
  H  343  1  0.35720300  0.76716500  0.69255600  1
  H  344  1  0.31752400  0.76003700  0.66124700  1
  H  345  1  0.26803600  0.77622100  0.72398800  1
  H  346  1  0.85912900  0.79000400  0.73481500  1
  H  348  1  0.68625000  0.76895600  0.63690900  1
  H  349  1  0.67702500  0.78671300  0.66031000  1
  H  350  1  0.64363200  0.76339700  0.65417800  1
  H  353  1  0.15384600  0.77691400  0.75078300  1
  H  354  1  0.85606900  0.74589000  0.61602600  1
  H  361  1  0.84377100  0.63605500  0.75469900  1
  H  370  1  0.63582500  0.69218500  0.76770600  1
  H  371  1  0.68070200  0.66050600  0.75887900  1
  H  372  1  0.71799400  0.72448200  0.77959100  1
  H  373  1  0.12458400  0.73615600  0.79466800  1
  H  375  1  0.31336600  0.63711400  0.76843700  1
  H  376  1  0.31796300  0.66023600  0.78689700  1
  H  377  1  0.35519300  0.65516100  0.76398600  1
  H  380  1  0.81408400  0.75404100  0.78599300  1
  H  381  1  0.14428900  0.61590400  0.74489600  1
  H  388  1  0.84412600  0.24551400  0.88124000  1
  H  397  1  0.63596500  0.23254600  0.92437800  1
  H  398  1  0.68094400  0.24134300  0.90150600  1
  H  399  1  0.71808500  0.22071300  0.94483800  1
  H  400  1  0.12474200  0.20568900  0.94150700  1
  H  402  1  0.31382600  0.23181600  0.86863200  1
  H  403  1  0.31842300  0.21337100  0.87331700  1
  H  404  1  0.35551400  0.23629200  0.89114400  1
  H  407  1  0.81401000  0.21434000  0.96801300  1
  H  408  1  0.14454000  0.25535400  0.87093800  1
  H  415  1  0.84367200  0.11907900  0.36418000  1
  H  424  1  0.63577500  0.07591400  0.30806700  1
  H  425  1  0.68058300  0.09881600  0.33973100  1
  H  426  1  0.71814400  0.05538900  0.27580100  1
  H  427  1  0.12504200  0.05863800  0.26415900  1
  H  429  1  0.31355500  0.13162300  0.36314600  1
  H  430  1  0.31849400  0.12689600  0.34000400  1
  H  431  1  0.35518400  0.10909200  0.34514600  1
  H  434  1  0.81343900  0.03227300  0.24621000  1
  H  435  1  0.14425800  0.12933700  0.38434400  1
  H  442  1  0.84163100  0.75884300  0.21854700  1
  H  451  1  0.65384100  0.69892600  0.18422100  1
  H  452  1  0.68725000  0.73162700  0.20425300  1
  H  453  1  0.74732700  0.66760900  0.16193800  1
  H  454  1  0.16054500  0.66316100  0.15009000  1
  H  456  1  0.31277700  0.76619600  0.21134900  1
  H  457  1  0.32796200  0.74715200  0.18866400  1
  H  458  1  0.35995500  0.74427300  0.20804400  1
  H  461  1  0.85454000  0.63958600  0.13329700  1
  H  462  1  0.13643100  0.77937000  0.23592300  1
  H  469  1  0.84196100  0.45997600  0.24137400  1
  H  478  1  0.65393000  0.48560900  0.30128200  1
  H  479  1  0.68748100  0.47292200  0.26858000  1
  H  480  1  0.74725700  0.49465400  0.33261000  1
  H  481  1  0.16043200  0.48725500  0.33709500  1
  H  483  1  0.31310500  0.44542800  0.23406500  1
  H  484  1  0.32821100  0.44180400  0.25312000  1
  H  485  1  0.36020800  0.46405700  0.25598600  1
  H  488  1  0.85429900  0.49404500  0.36064800  1
  H  489  1  0.13660500  0.45682800  0.22086900  1
  H  496  1  0.84200400  0.78173000  0.54029700  1
  H  505  1  0.65402800  0.81599600  0.51465300  1
  H  506  1  0.68754600  0.79598800  0.52734700  1
  H  507  1  0.74737500  0.83828200  0.50561100  1
  H  508  1  0.16053400  0.85017100  0.51302200  1
  H  510  1  0.31311600  0.78897200  0.55485600  1
  H  511  1  0.32829100  0.81164700  0.55846700  1
  H  512  1  0.36022300  0.79225000  0.53621700  1
  H  515  1  0.85437400  0.86692200  0.50621100  1
  H  516  1  0.13660900  0.76436700  0.54343700  1
  H  523  1  0.16225500  0.54132900  0.78223000  1
  H  532  1  0.35378100  0.51605800  0.81661500  1
  H  533  1  0.31838300  0.52864900  0.79655500  1
  H  534  1  0.26202700  0.50689900  0.83889000  1
  H  535  1  0.84880900  0.51386900  0.85080700  1
  H  537  1  0.69031900  0.55541100  0.78950900  1
  H  538  1  0.67588400  0.55906300  0.81220500  1
  H  539  1  0.64484100  0.53675700  0.79284800  1
  H  542  1  0.15557600  0.50723900  0.86750100  1
  H  543  1  0.86568800  0.54412100  0.76491800  1
  H  550  1  0.16204500  0.21803000  0.75903200  1
  H  559  1  0.35363700  0.18365200  0.69938100  1
  H  560  1  0.31819400  0.20371300  0.73203300  1
  H  561  1  0.26193000  0.16137400  0.66794500  1
  H  562  1  0.84871900  0.14945300  0.66299000  1
  H  564  1  0.69010500  0.21075000  0.76582600  1
  H  565  1  0.67566000  0.18805600  0.74677800  1
  H  566  1  0.64464300  0.20741700  0.74383400  1
  H  569  1  0.15556600  0.13276700  0.63967100  1
  H  570  1  0.86552500  0.23534500  0.77913500  1
  H  577  1  0.16227300  0.24124600  0.45897600  1
  H  586  1  0.35374400  0.30090400  0.48423800  1
  H  587  1  0.31837400  0.26825200  0.47165000  1
  H  588  1  0.26196600  0.33233400  0.49338600  1
  H  589  1  0.84875000  0.33726800  0.48639900  1
  H  591  1  0.69034000  0.23443100  0.44488800  1
  H  592  1  0.67589300  0.25347000  0.44122800  1
  H  593  1  0.64485100  0.25642700  0.46353700  1
  H  596  1  0.15553600  0.36059800  0.49304000  1
  H  597  1  0.86575500  0.22113400  0.45617800  1
  H  604  1  0.16473100  0.87331400  0.41364400  1
  H  613  1  0.35254500  0.85937000  0.35599400  1
  H  614  1  0.31931200  0.86837800  0.38797600  1
  H  615  1  0.25868800  0.84728700  0.32406500  1
  H  616  1  0.84518000  0.83584700  0.31596300  1
  H  618  1  0.69335900  0.86195400  0.41583200  1
  H  619  1  0.67819200  0.84418000  0.39251800  1
  H  620  1  0.64647200  0.86755900  0.39873400  1
  H  623  1  0.15052600  0.82647600  0.29180200  1
  H  624  1  0.86749600  0.88448600  0.43557400  1
  H  631  1  0.16515000  0.54061200  0.12693600  1
  H  640  1  0.35272600  0.49691700  0.14091000  1
  H  641  1  0.31961400  0.51988000  0.13188600  1
  H  642  1  0.25874800  0.47708300  0.15299800  1
  H  643  1  0.84518200  0.48042800  0.16441000  1
  H  645  1  0.69381800  0.55418000  0.13826700  1
  H  646  1  0.67845300  0.54863200  0.15603200  1
  H  647  1  0.64685200  0.53147600  0.13264800  1
  H  650  1  0.15052600  0.46562900  0.17379500  1
  H  651  1  0.86797000  0.55135900  0.11573400  1
  H  658  1  0.16512300  0.58663500  0.45963200  1
  H  667  1  0.35272500  0.64431100  0.50331500  1
  H  668  1  0.31961800  0.61232300  0.48035300  1
  H  669  1  0.25872900  0.67623200  0.52315300  1
  H  670  1  0.84517200  0.68429700  0.51980400  1
  H  672  1  0.69375900  0.58440100  0.44606900  1
  H  673  1  0.67847200  0.60771000  0.45159900  1
  H  674  1  0.64681100  0.60150100  0.46876800  1
  H  677  1  0.15045500  0.70848300  0.53460300  1
  H  678  1  0.86778600  0.56468900  0.44887900  1
  H  685  1  0.83737400  0.45883600  0.58688400  1
  H  694  1  0.64770600  0.50299000  0.64423600  1
  H  695  1  0.68185200  0.47977500  0.61235300  1
  H  696  1  0.74067800  0.52304600  0.67622100  1
  H  697  1  0.15294600  0.51925700  0.68474900  1
  H  699  1  0.30744700  0.44479400  0.58542500  1
  H  700  1  0.32056400  0.45053700  0.60881500  1
  H  701  1  0.35459400  0.46752600  0.60243500  1
  H  704  1  0.84739000  0.53488900  0.70868000  1
  H  705  1  0.13807900  0.44800500  0.56557300  1
  H  712  1  0.83735400  0.41335600  0.87184700  1
  H  721  1  0.64766100  0.35601800  0.85868200  1
  H  722  1  0.68181200  0.38789500  0.86732700  1
  H  723  1  0.74061700  0.32403700  0.84677200  1
  H  724  1  0.15290700  0.31550300  0.83447100  1
  H  726  1  0.30745700  0.41481000  0.85928400  1
  H  727  1  0.32067500  0.39141400  0.84165900  1
  H  728  1  0.35451600  0.39782200  0.86504000  1
  H  731  1  0.84723000  0.29158000  0.82618300  1
  H  732  1  0.13801800  0.43466500  0.88234900  1
  H  739  1  0.83714100  0.12837900  0.54142800  1
  H  748  1  0.64756200  0.14158500  0.49727400  1
  H  749  1  0.68165100  0.13292100  0.52049300  1
  H  750  1  0.74061600  0.15349600  0.47720900  1
  H  751  1  0.15292600  0.16578200  0.48098500  1
  H  753  1  0.30725500  0.14093700  0.55546200  1
  H  754  1  0.32041400  0.15857800  0.54971300  1
  H  755  1  0.35438700  0.13520700  0.53272900  1
  H  758  1  0.84739100  0.17410300  0.46536500  1
  H  759  1  0.13796900  0.11789000  0.55225900  1
  H  766  1  0.83949000  0.05033500  0.56291400  1
  H  775  1  0.64464400  0.99093300  0.53781800  1
  H  776  1  0.68190300  0.02381700  0.55341700  1
  H  777  1  0.73586900  0.95864800  0.51961000  1
  H  778  1  0.15391500  0.95182400  0.51206700  1
  H  780  1  0.32107400  0.05440900  0.56068700  1
  H  781  1  0.33841500  0.03343800  0.53936300  1
  H  782  1  0.35736500  0.03370600  0.56068800  1
  H  785  1  0.83929300  0.92894800  0.49464700  1
  H  786  1  0.12620700  0.06973500  0.55751700  1
  H  793  1  0.83915300  0.51286200  0.94990900  1
  H  802  1  0.64440000  0.54719600  0.00931400  1
  H  803  1  0.68162100  0.52991000  0.97642900  1
  H  804  1  0.73565900  0.56127100  0.04159700  1
  H  805  1  0.15370000  0.56053800  0.04840900  1
  H  807  1  0.32075100  0.50655600  0.94582500  1
  H  808  1  0.33806800  0.50621000  0.96680200  1
  H  809  1  0.35706500  0.52726200  0.96652500  1
  H  812  1  0.83927400  0.56597600  0.07129000  1
  H  813  1  0.12588300  0.48806600  0.93050900  1
  H  820  1  0.83938400  0.43735000  0.48737800  1
  H  829  1  0.64441100  0.46241000  0.45304400  1
  H  830  1  0.68174300  0.44682000  0.47033600  1
  H  831  1  0.73555900  0.48062400  0.43896500  1
  H  832  1  0.15356500  0.48819700  0.43969800  1
  H  834  1  0.32098500  0.43959400  0.49366900  1
  H  835  1  0.33827800  0.46091700  0.49401900  1
  H  836  1  0.35718500  0.43959100  0.47296300  1
  H  839  1  0.83905400  0.50560700  0.43424200  1
  H  840  1  0.12615100  0.44275300  0.51216900  1
  N  10  1  0.00476400  0.96736400  0.96683500  1
  N  11  1  0.00479300  0.03341300  0.00045000  1
  N  12  1  0.00470400  0.99980000  0.03288600  1
  N  22  1  0.98001700  0.03533900  0.23527700  1
  N  23  1  0.01510500  0.99871100  0.16936300  1
  N  24  1  0.00842200  0.96924200  0.20535300  1
  N  34  1  0.98007600  0.20020600  0.96485800  1
  N  35  1  0.01522000  0.17098000  0.00153600  1
  N  36  1  0.00840300  0.23643500  0.03095200  1
  N  46  1  0.98029800  0.76497300  0.80007900  1
  N  47  1  0.01530000  0.83087600  0.82927400  1
  N  48  1  0.00837200  0.79480700  0.76382100  1
  N  58  1  0.98907500  0.83865900  0.28893900  1
  N  59  1  0.99315400  0.85159600  0.23923500  1
  N  60  1  0.99913200  0.78938300  0.22602700  1
  N  70  1  0.98904900  0.45059000  0.16161100  1
  N  71  1  0.99301300  0.38793500  0.14862500  1
  N  72  1  0.99937100  0.43690900  0.21085700  1
  N  82  1  0.98906600  0.71133300  0.54965700  1
  N  83  1  0.99298500  0.76099000  0.61231900  1
  N  84  1  0.99944400  0.77427000  0.56336300  1
  N  94  1  0.01134200  0.54942900  0.71130800  1
  N  95  1  0.00981100  0.61231600  0.76039100  1
  N  96  1  0.00387900  0.56390400  0.77444700  1
  N  106  1  0.01132100  0.28893900  0.83806100  1
  N  107  1  0.01023200  0.23983100  0.85183500  1
  N  108  1  0.00365400  0.22580700  0.78938400  1
  N  118  1  0.01134000  0.16219200  0.45082100  1
  N  119  1  0.00987300  0.14843800  0.38794700  1
  N  120  1  0.00389300  0.21088500  0.43638800  1
  N  130  1  0.00854400  0.92094800  0.50083600  1
  N  131  1  0.01569600  0.85937000  0.49020800  1
  N  132  1  0.00692300  0.86954300  0.43908500  1
  N  142  1  0.00838100  0.58020400  0.07928800  1
  N  143  1  0.01572900  0.63113300  0.14087300  1
  N  144  1  0.00730200  0.56983000  0.13068100  1
  N  154  1  0.00825200  0.49939900  0.42003600  1
  N  155  1  0.01555000  0.51006100  0.36910800  1
  N  156  1  0.00719300  0.56116400  0.43041900  1
  N  166  1  0.00951200  0.42057900  0.49982100  1
  N  167  1  0.99605800  0.36905200  0.50940300  1
  N  168  1  0.99509300  0.42978800  0.56139700  1
  N  178  1  0.00932200  0.50041700  0.92067700  1
  N  179  1  0.99619400  0.49085600  0.85957300  1
  N  180  1  0.99519900  0.43885000  0.86829300  1
  N  190  1  0.00956400  0.07956000  0.57968900  1
  N  191  1  0.99609300  0.14067200  0.63121300  1
  N  192  1  0.99495200  0.13191900  0.57047100  1
  N  195  1  0.12963000  0.00369400  0.11779800  1
  N  204  1  0.09604000  0.99859300  0.08201700  1
  N  222  1  0.12976200  0.11443900  0.99657400  1
  N  231  1  0.09614000  0.08375700  0.00166800  1
  N  249  1  0.12987200  0.88246700  0.88581200  1
  N  258  1  0.09619100  0.91824200  0.91649500  1
  N  276  1  0.88043400  0.89782100  0.22563500  1
  N  285  1  0.92668200  0.92603900  0.21706800  1
  N  303  1  0.88013300  0.32813800  0.10237200  1
  N  312  1  0.92642200  0.29135900  0.07413300  1
  N  330  1  0.88014200  0.77453200  0.67211800  1
  N  339  1  0.92640100  0.78307300  0.70889600  1
  N  357  1  0.11562500  0.67225100  0.77472400  1
  N  366  1  0.06322900  0.70944700  0.78521000  1
  N  384  1  0.11593500  0.22554900  0.89748200  1
  N  393  1  0.06342900  0.21510100  0.92421600  1
  N  411  1  0.11578500  0.10277500  0.32801300  1
  N  420  1  0.06349900  0.07599900  0.29083600  1
  N  438  1  0.12821400  0.72747500  0.19147800  1
  N  447  1  0.09032200  0.68920400  0.16832500  1
  N  465  1  0.12839700  0.46430100  0.27277400  1
  N  474  1  0.09033300  0.47944000  0.31104500  1
  N  492  1  0.12845200  0.80880600  0.53597700  1
  N  501  1  0.09042100  0.83193700  0.52083800  1
  N  519  1  0.87739300  0.53683800  0.80942100  1
  N  528  1  0.91760700  0.52180300  0.83260100  1
  N  546  1  0.87720400  0.19084200  0.72734300  1
  N  555  1  0.91747500  0.16766300  0.68912800  1
  N  573  1  0.87738400  0.27291900  0.46345200  1
  N  582  1  0.91757100  0.31113300  0.47847900  1
  N  600  1  0.87818300  0.85569100  0.37963600  1
  N  609  1  0.91577300  0.84554400  0.34236200  1
  N  627  1  0.87844500  0.52424200  0.14454800  1
  N  636  1  0.91589200  0.49712600  0.15471400  1
  N  654  1  0.87844300  0.62062200  0.47599200  1
  N  663  1  0.91588500  0.65790500  0.50310500  1
  N  681  1  0.12143300  0.47502300  0.62128200  1
  N  690  1  0.08292900  0.50239000  0.65836300  1
  N  708  1  0.12141400  0.37896200  0.85366800  1
  N  717  1  0.08289400  0.34188500  0.84397200  1
  N  735  1  0.12127500  0.14656800  0.52523300  1
  N  744  1  0.08284400  0.15628100  0.49786300  1
  N  762  1  0.12843300  0.01674800  0.54558400  1
  N  771  1  0.08572300  0.97847900  0.52742500  1
  N  789  1  0.12814200  0.52913100  0.98348700  1
  N  798  1  0.08548300  0.54924500  0.02175700  1
  N  816  1  0.12823300  0.45469100  0.47111600  1
  N  825  1  0.08544100  0.47284100  0.45100100  1
