# generated using pymatgen
data_H15C22(NO)4
_symmetry_space_group_name_H-M   'P 1'
_cell_length_a   28.54890000
_cell_length_b   77.60410000
_cell_length_c   77.60410000
_cell_angle_alpha   90.00000000
_cell_angle_beta   90.00000000
_cell_angle_gamma   90.00000000
_symmetry_Int_Tables_number   1
_chemical_formula_structural   H15C22(NO)4
_chemical_formula_sum   'H960 C1408 N256 O256'
_cell_volume   171932.79077996
_cell_formula_units_Z   64
loop_
 _symmetry_equiv_pos_site_id
 _symmetry_equiv_pos_as_xyz
  1  'x, y, z'
loop_
 _atom_site_type_symbol
 _atom_site_label
 _atom_site_symmetry_multiplicity
 _atom_site_fract_x
 _atom_site_fract_y
 _atom_site_fract_z
 _atom_site_occupancy
  H  7  1  0.30234400  0.06201200  0.00391100  1
  H  16  1  0.23915800  0.10825600  0.01332800  1
  H  19  1  0.23076100  0.10423500  0.96711800  1
  H  20  1  0.21136800  0.05865100  0.97899300  1
  H  21  1  0.42329100  0.09225300  0.97220800  1
  H  22  1  0.08203400  0.08480600  0.02365800  1
  H  24  1  0.13121500  0.11369100  0.03305200  1
  H  26  1  0.12323600  0.04897700  0.02118600  1
  H  28  1  0.34892500  0.10701400  0.94856900  1
  H  30  1  0.39656900  0.05431200  0.97694900  1
  H  37  1  0.80237800  0.43683900  0.99496500  1
  H  46  1  0.73919800  0.39059000  0.98553200  1
  H  49  1  0.73062700  0.39464000  0.03173800  1
  H  50  1  0.71130600  0.44021200  0.01982800  1
  H  51  1  0.92317800  0.40657800  0.02673200  1
  H  52  1  0.58206500  0.41400800  0.97517500  1
  H  54  1  0.63127100  0.38510600  0.96584300  1
  H  56  1  0.62324700  0.44986300  0.97763000  1
  H  58  1  0.84880000  0.39180600  0.05032100  1
  H  60  1  0.89651500  0.44453000  0.02196900  1
  H  67  1  0.55225300  0.24496600  0.81200200  1
  H  76  1  0.48915000  0.23553400  0.85825400  1
  H  79  1  0.48067000  0.28175200  0.85422900  1
  H  80  1  0.46122600  0.26987200  0.80866300  1
  H  81  1  0.67319600  0.27668900  0.84223300  1
  H  82  1  0.33199000  0.22519200  0.83485000  1
  H  84  1  0.38123700  0.21582400  0.86373000  1
  H  86  1  0.37319500  0.22766600  0.79899600  1
  H  88  1  0.59887100  0.30030500  0.85702300  1
  H  90  1  0.64644200  0.27192900  0.80428700  1
  H  97  1  0.05230800  0.25388900  0.18683800  1
  H  106  1  0.98911700  0.26326700  0.14058100  1
  H  109  1  0.98062600  0.21704600  0.14468600  1
  H  110  1  0.96128400  0.22900800  0.19023700  1
  H  111  1  0.17317900  0.22215400  0.15658300  1
  H  112  1  0.83195900  0.27361000  0.16398600  1
  H  114  1  0.88116500  0.28293200  0.13507800  1
  H  116  1  0.87313700  0.27119900  0.19983700  1
  H  118  1  0.09887900  0.19852500  0.14184900  1
  H  120  1  0.14651600  0.22692200  0.19453600  1
  H  127  1  0.69572900  0.93701300  0.99534900  1
  H  136  1  0.75875800  0.89080800  0.98555100  1
  H  139  1  0.76941300  0.89484400  0.03174700  1
  H  140  1  0.78889900  0.94030400  0.01982400  1
  H  141  1  0.57652700  0.90644400  0.02753000  1
  H  142  1  0.91586700  0.91403100  0.97475600  1
  H  144  1  0.86635900  0.88521400  0.96558100  1
  H  146  1  0.87465400  0.95003400  0.97737600  1
  H  148  1  0.65172400  0.89176700  0.05082600  1
  H  150  1  0.60241200  0.94445200  0.02266100  1
  H  157  1  0.19568100  0.56184200  0.00346700  1
  H  166  1  0.25873600  0.60805300  0.01324700  1
  H  169  1  0.26954900  0.60395500  0.96705500  1
  H  170  1  0.28896800  0.55850600  0.97905200  1
  H  171  1  0.07663800  0.59242200  0.97121100  1
  H  172  1  0.41583400  0.58485000  0.02409200  1
  H  174  1  0.36631900  0.61370300  0.03317300  1
  H  176  1  0.37459200  0.54882500  0.02152200  1
  H  178  1  0.15183500  0.60709500  0.94795300  1
  H  180  1  0.10243500  0.55440300  0.97612400  1
  H  187  1  0.44645200  0.75378500  0.18680600  1
  H  196  1  0.50971100  0.76313300  0.14054100  1
  H  199  1  0.51786200  0.71693300  0.14459400  1
  H  200  1  0.53733100  0.72884800  0.19019900  1
  H  201  1  0.32537600  0.72211500  0.15658600  1
  H  202  1  0.66682100  0.77342000  0.16402700  1
  H  204  1  0.61777200  0.78275500  0.13510200  1
  H  206  1  0.62539700  0.77103900  0.19985900  1
  H  208  1  0.39953200  0.69846300  0.14181200  1
  H  210  1  0.35219600  0.72686300  0.19454000  1
  H  217  1  0.94639700  0.74504000  0.81204400  1
  H  226  1  0.00976900  0.73575100  0.85830000  1
  H  229  1  0.01787600  0.78196500  0.85417300  1
  H  230  1  0.03723800  0.76999000  0.80859900  1
  H  231  1  0.82536300  0.77670500  0.84229100  1
  H  232  1  0.16689600  0.72551200  0.83481400  1
  H  234  1  0.11789000  0.71618700  0.86375700  1
  H  236  1  0.12547100  0.72783400  0.79898400  1
  H  238  1  0.89947400  0.80038600  0.85699800  1
  H  240  1  0.85208900  0.77194800  0.80433000  1
  H  247  1  0.80239500  0.56203700  0.50379400  1
  H  256  1  0.73905500  0.60829200  0.51312300  1
  H  259  1  0.73100900  0.60424900  0.46693100  1
  H  260  1  0.71155800  0.55862200  0.47884000  1
  H  261  1  0.92350300  0.59228000  0.47217200  1
  H  262  1  0.58198400  0.58476300  0.52340400  1
  H  264  1  0.63098100  0.61369400  0.53276500  1
  H  266  1  0.62339700  0.54896200  0.52103400  1
  H  268  1  0.84931800  0.60701900  0.44848000  1
  H  270  1  0.89674200  0.55433100  0.47689600  1
  H  277  1  0.30239900  0.93681000  0.49506200  1
  H  286  1  0.23909600  0.89054400  0.48574000  1
  H  289  1  0.23094000  0.89462500  0.53193400  1
  H  290  1  0.21150000  0.94023100  0.51998500  1
  H  291  1  0.42343500  0.90657700  0.52673900  1
  H  292  1  0.08198600  0.91402700  0.47545100  1
  H  294  1  0.13102000  0.88508600  0.46614300  1
  H  296  1  0.12336700  0.94985900  0.47779900  1
  H  298  1  0.34928700  0.89182100  0.55039700  1
  H  300  1  0.39668400  0.94453100  0.52198800  1
  H  307  1  0.05303400  0.74539300  0.31182100  1
  H  316  1  0.99010800  0.73557900  0.35804100  1
  H  319  1  0.97934800  0.78178000  0.35399500  1
  H  320  1  0.95979500  0.76984700  0.30855200  1
  H  321  1  0.17223000  0.77760200  0.34237100  1
  H  322  1  0.83294300  0.72477600  0.33487900  1
  H  324  1  0.88252400  0.71564100  0.36369200  1
  H  326  1  0.87421900  0.72737900  0.29884500  1
  H  328  1  0.09707500  0.80087000  0.35708500  1
  H  330  1  0.14632300  0.77270900  0.30436800  1
  H  337  1  0.55305100  0.75345300  0.68702100  1
  H  346  1  0.49011000  0.76322600  0.64079200  1
  H  349  1  0.47933900  0.71701800  0.64489900  1
  H  350  1  0.45981800  0.72901100  0.69031900  1
  H  351  1  0.67222900  0.72123900  0.65647000  1
  H  352  1  0.33290400  0.77401200  0.66392200  1
  H  354  1  0.38249100  0.78312100  0.63509900  1
  H  356  1  0.37415500  0.77146700  0.69996500  1
  H  358  1  0.59711600  0.69796000  0.64178900  1
  H  360  1  0.64634000  0.72612900  0.69447700  1
  H  367  1  0.19569100  0.43698400  0.49546800  1
  H  376  1  0.25881800  0.39077000  0.48573400  1
  H  379  1  0.26912600  0.39481000  0.53192800  1
  H  380  1  0.28872000  0.44029200  0.52000800  1
  H  381  1  0.07628300  0.40642500  0.52756300  1
  H  382  1  0.41594300  0.41403600  0.47504800  1
  H  384  1  0.36658200  0.38520000  0.46586700  1
  H  386  1  0.37444900  0.45003100  0.47758400  1
  H  388  1  0.15129100  0.39175900  0.55091300  1
  H  390  1  0.10225800  0.44444100  0.52271600  1
  H  397  1  0.69564900  0.06186600  0.50336500  1
  H  406  1  0.75884200  0.10809400  0.51305600  1
  H  409  1  0.76926600  0.10397900  0.46688500  1
  H  410  1  0.78877300  0.05848400  0.47890600  1
  H  411  1  0.57639700  0.09242700  0.47119300  1
  H  412  1  0.91590600  0.08481600  0.52383300  1
  H  414  1  0.86657600  0.11371300  0.53288900  1
  H  416  1  0.87444400  0.04881400  0.52136800  1
  H  418  1  0.65139500  0.10709700  0.44788200  1
  H  420  1  0.60228900  0.05440500  0.47608200  1
  H  427  1  0.94568300  0.25335600  0.68699000  1
  H  436  1  0.00878300  0.26309400  0.64076300  1
  H  439  1  0.01919300  0.21690700  0.64482600  1
  H  440  1  0.03877300  0.22885800  0.69030700  1
  H  441  1  0.82634400  0.22121100  0.65644400  1
  H  442  1  0.16589500  0.27382600  0.66401700  1
  H  444  1  0.11651800  0.28294100  0.63515800  1
  H  446  1  0.12438200  0.27130100  0.70003100  1
  H  448  1  0.90133400  0.19790200  0.64174500  1
  H  450  1  0.85231000  0.22608700  0.69445600  1
  H  457  1  0.44559300  0.24546100  0.31187100  1
  H  466  1  0.50881100  0.23580200  0.35810300  1
  H  469  1  0.51920000  0.28198600  0.35394100  1
  H  470  1  0.53866900  0.26993400  0.30847300  1
  H  471  1  0.32632200  0.27763200  0.34242100  1
  H  472  1  0.66589600  0.22505400  0.33483000  1
  H  474  1  0.61658100  0.21599700  0.36372900  1
  H  476  1  0.62443700  0.22749700  0.29882600  1
  H  478  1  0.40128300  0.30095800  0.35705700  1
  H  480  1  0.35222400  0.27273900  0.30440300  1
  H  487  1  0.02423400  0.04681700  0.98429200  1
  H  496  1  0.89098700  0.01080500  0.98068600  1
  H  497  1  0.94467800  0.03452400  0.97859200  1
  H  498  1  0.87462900  0.98049000  0.98979900  1
  H  500  1  0.16670000  0.02237900  0.00751000  1
  H  501  1  0.15172600  0.00071700  0.00387500  1
  H  502  1  0.13857700  0.01045700  0.02398000  1
  H  504  1  0.02782700  0.94939300  0.01937900  1
  H  505  1  0.98773000  0.93656500  0.00769000  1
  H  506  1  0.97298000  0.94435700  0.02857200  1
  H  517  1  0.52409000  0.45198700  0.01449900  1
  H  526  1  0.39091900  0.48803300  0.01814600  1
  H  527  1  0.44456000  0.46429500  0.02020900  1
  H  528  1  0.37463100  0.51836700  0.00907500  1
  H  530  1  0.66666667  0.47642700  0.99135800  1
  H  531  1  0.65172400  0.49808900  0.99500700  1
  H  532  1  0.63855400  0.48836800  0.97489500  1
  H  534  1  0.52794700  0.54948500  0.97960200  1
  H  535  1  0.48781600  0.56230500  0.99128500  1
  H  536  1  0.47313200  0.55453200  0.97039000  1
  H  547  1  0.27403600  0.26451800  0.79684000  1
  H  556  1  0.14077800  0.26803300  0.76082200  1
  H  557  1  0.19446000  0.27017100  0.78454100  1
  H  558  1  0.12446000  0.25889200  0.73051000  1
  H  560  1  0.41661200  0.24137900  0.77241600  1
  H  561  1  0.40164100  0.24500900  0.75075200  1
  H  562  1  0.38856800  0.22489500  0.76048800  1
  H  564  1  0.27781600  0.22941700  0.69942000  1
  H  565  1  0.23763800  0.24106600  0.68659000  1
  H  566  1  0.22302500  0.22017400  0.69439100  1
  H  577  1  0.77403000  0.23432500  0.20200000  1
  H  586  1  0.64079500  0.23075400  0.23802200  1
  H  587  1  0.69448200  0.22863700  0.21430300  1
  H  588  1  0.62445500  0.23988900  0.26833400  1
  H  590  1  0.91656100  0.25750000  0.22642700  1
  H  591  1  0.90159000  0.25387300  0.24809100  1
  H  592  1  0.88847600  0.27398200  0.23834900  1
  H  594  1  0.77774600  0.26940100  0.29943100  1
  H  595  1  0.73758400  0.25773900  0.31225800  1
  H  596  1  0.72293500  0.27862800  0.30445900  1
  H  607  1  0.97403800  0.45360000  0.97982300  1
  H  616  1  0.09801900  0.49335500  0.97235000  1
  H  617  1  0.04759100  0.46865400  0.97069200  1
  H  618  1  0.11445800  0.52270700  0.98414700  1
  H  620  1  0.84249100  0.47118600  0.01490300  1
  H  621  1  0.85237300  0.49347000  0.01315900  1
  H  622  1  0.87661900  0.48183500  0.03069600  1
  H  624  1  0.97545300  0.54573600  0.02740200  1
  H  625  1  0.00677500  0.56094400  0.01495600  1
  H  626  1  0.03340600  0.55111400  0.03321500  1
  H  637  1  0.47396600  0.04523000  0.01908400  1
  H  646  1  0.59803700  0.00550000  0.02649200  1
  H  647  1  0.54755900  0.03018300  0.02819000  1
  H  648  1  0.61451800  0.97616600  0.01466100  1
  H  650  1  0.34243500  0.02765600  0.98399100  1
  H  651  1  0.35232500  0.00537100  0.98571300  1
  H  652  1  0.37658200  0.01702700  0.96819200  1
  H  654  1  0.47554600  0.95315500  0.97138100  1
  H  655  1  0.50689500  0.93793600  0.98380300  1
  H  656  1  0.53351600  0.94780600  0.96556300  1
  H  667  1  0.72384900  0.22978200  0.79523100  1
  H  676  1  0.84792400  0.22231500  0.75551100  1
  H  677  1  0.79743500  0.22065100  0.78019500  1
  H  678  1  0.86441900  0.23411300  0.72616500  1
  H  680  1  0.59238000  0.26488900  0.77762300  1
  H  681  1  0.60227500  0.26313500  0.75534100  1
  H  682  1  0.62653900  0.28067100  0.76697300  1
  H  684  1  0.72549600  0.27739100  0.70310900  1
  H  685  1  0.75682100  0.26493900  0.68790800  1
  H  686  1  0.78346300  0.28319400  0.69774200  1
  H  697  1  0.22397200  0.26907200  0.20360000  1
  H  706  1  0.34796300  0.27652400  0.24335400  1
  H  707  1  0.29751900  0.27820000  0.21866000  1
  H  708  1  0.36439900  0.26471800  0.27270200  1
  H  710  1  0.09241700  0.23399400  0.22117600  1
  H  711  1  0.10230000  0.23572700  0.24346100  1
  H  712  1  0.12653900  0.21819500  0.23181800  1
  H  714  1  0.22542100  0.22144100  0.29571200  1
  H  715  1  0.25671900  0.23388800  0.31092500  1
  H  716  1  0.28338100  0.21563700  0.30109300  1
  H  727  1  0.72454600  0.73417300  0.20205800  1
  H  736  1  0.85779800  0.73064700  0.23807500  1
  H  737  1  0.80411500  0.72851500  0.21435600  1
  H  738  1  0.87412800  0.73978800  0.26838300  1
  H  740  1  0.58202600  0.75737300  0.22646500  1
  H  741  1  0.59699000  0.75376300  0.24813100  1
  H  742  1  0.61010800  0.77386200  0.23837400  1
  H  744  1  0.72084700  0.76933000  0.29946000  1
  H  745  1  0.76097900  0.75766600  0.31229400  1
  H  746  1  0.77566200  0.77854900  0.30449000  1
  H  757  1  0.22444500  0.76471400  0.79675100  1
  H  766  1  0.35772300  0.76823600  0.76074400  1
  H  767  1  0.30401700  0.77037800  0.78445600  1
  H  768  1  0.37408500  0.75907700  0.73044300  1
  H  770  1  0.08198500  0.74144100  0.77235800  1
  H  771  1  0.09691600  0.74504800  0.75068800  1
  H  772  1  0.11014500  0.72496500  0.76045800  1
  H  774  1  0.22086400  0.72948200  0.69937400  1
  H  775  1  0.26099600  0.74113600  0.68652900  1
  H  776  1  0.27570300  0.72026700  0.69436600  1
  H  787  1  0.27488200  0.76901800  0.20359700  1
  H  796  1  0.15081300  0.77648600  0.24331800  1
  H  797  1  0.20129900  0.77815000  0.21863400  1
  H  798  1  0.13431700  0.76468600  0.27266500  1
  H  800  1  0.40634100  0.73390300  0.22119700  1
  H  801  1  0.39647400  0.73566400  0.24348100  1
  H  802  1  0.37218300  0.71812800  0.23185600  1
  H  804  1  0.27326700  0.72142200  0.29572400  1
  H  805  1  0.24191900  0.73386700  0.31092700  1
  H  806  1  0.21530100  0.71561000  0.30108600  1
  H  817  1  0.77476600  0.72978200  0.79526700  1
  H  826  1  0.65076400  0.72232500  0.75551800  1
  H  827  1  0.70122200  0.72064700  0.78021000  1
  H  828  1  0.63429800  0.73413900  0.72617600  1
  H  830  1  0.90628000  0.76488200  0.77769600  1
  H  831  1  0.89642000  0.76314200  0.75540900  1
  H  832  1  0.87213900  0.78067200  0.76704700  1
  H  834  1  0.77327300  0.77741200  0.70315600  1
  H  835  1  0.74194500  0.76497500  0.68794300  1
  H  836  1  0.71531300  0.78322500  0.69778800  1
  H  847  1  0.52436000  0.54675300  0.48417500  1
  H  856  1  0.39096400  0.51079700  0.48074500  1
  H  857  1  0.44473900  0.53448300  0.47855200  1
  H  858  1  0.37452900  0.48051600  0.48995300  1
  H  860  1  0.66681700  0.52231700  0.50740200  1
  H  861  1  0.65176600  0.50065200  0.50382500  1
  H  862  1  0.63871500  0.51044600  0.52391300  1
  H  864  1  0.52772600  0.44942700  0.51954100  1
  H  865  1  0.48753900  0.43658800  0.50790500  1
  H  866  1  0.47290100  0.44443900  0.52877500  1
  H  877  1  0.02420700  0.95203000  0.51463700  1
  H  886  1  0.89089300  0.98802200  0.51812800  1
  H  887  1  0.94461100  0.96431600  0.52027800  1
  H  888  1  0.87453100  0.01832500  0.50897700  1
  H  890  1  0.16675400  0.97646700  0.49148700  1
  H  891  1  0.15177000  0.99813400  0.49508700  1
  H  892  1  0.13866200  0.98836600  0.47499100  1
  H  894  1  0.02785200  0.04944800  0.47951000  1
  H  895  1  0.98763900  0.06227300  0.49114800  1
  H  896  1  0.97305300  0.05445100  0.47026200  1
  H  907  1  0.47399700  0.95359300  0.47982400  1
  H  916  1  0.59797400  0.99334800  0.47232700  1
  H  917  1  0.54754100  0.96864800  0.47067700  1
  H  918  1  0.61442000  0.02270300  0.48411100  1
  H  920  1  0.34252000  0.97117500  0.51493900  1
  H  921  1  0.35236400  0.99345900  0.51317900  1
  H  922  1  0.37667000  0.98183900  0.53071500  1
  H  924  1  0.47547500  0.04573700  0.52739200  1
  H  925  1  0.50676600  0.06094300  0.51493300  1
  H  926  1  0.53343600  0.05112100  0.53318800  1
  H  937  1  0.97398900  0.54524400  0.51907500  1
  H  946  1  0.09797700  0.50549100  0.52654400  1
  H  947  1  0.04751700  0.53018200  0.52822200  1
  H  948  1  0.11446000  0.47615200  0.51472100  1
  H  950  1  0.84254000  0.52768800  0.48393300  1
  H  951  1  0.85240800  0.50540200  0.48566100  1
  H  952  1  0.87671000  0.51705200  0.46814400  1
  H  954  1  0.97558900  0.45316300  0.47138500  1
  H  955  1  0.00687300  0.43794300  0.48383100  1
  H  956  1  0.03356600  0.44779200  0.46559400  1
  H  967  1  0.38650500  0.15484400  0.96510800  1
  H  976  1  0.46399300  0.19833300  0.93336000  1
  H  977  1  0.43527100  0.18003700  0.95596300  1
  H  978  1  0.46528900  0.20640500  0.90203400  1
  H  980  1  0.27334300  0.11950900  0.93509400  1
  H  981  1  0.30727400  0.11736200  0.91609400  1
  H  982  1  0.26400000  0.13367800  0.91777800  1
  H  984  1  0.35391200  0.16426600  0.86253500  1
  H  985  1  0.40571800  0.17294400  0.85356000  1
  H  986  1  0.35560000  0.18620500  0.85656500  1
  H  997  1  0.88635300  0.34402700  0.03373400  1
  H  1006  1  0.96387600  0.30050300  0.06542700  1
  H  1007  1  0.93513200  0.31882400  0.04284600  1
  H  1008  1  0.96517600  0.29239200  0.09674000  1
  H  1010  1  0.77316500  0.37931500  0.06379300  1
  H  1011  1  0.80710300  0.38142900  0.08279400  1
  H  1012  1  0.76380900  0.36512200  0.08108900  1
  H  1014  1  0.85379100  0.33447400  0.13629600  1
  H  1015  1  0.90556900  0.32577000  0.14526700  1
  H  1016  1  0.85544100  0.31252500  0.14222700  1
  H  1027  1  0.63657800  0.28373000  0.90480700  1
  H  1036  1  0.71408700  0.31546400  0.94830500  1
  H  1037  1  0.68536800  0.29286700  0.92999900  1
  H  1038  1  0.71535500  0.34678400  0.95639600  1
  H  1040  1  0.52323200  0.31373600  0.86954800  1
  H  1041  1  0.55711100  0.33274900  0.86740000  1
  H  1042  1  0.51389700  0.33103800  0.88373500  1
  H  1044  1  0.60382700  0.38628500  0.91431200  1
  H  1045  1  0.65562300  0.39526800  0.92299200  1
  H  1046  1  0.60551900  0.39224200  0.93625500  1
  H  1057  1  0.13609400  0.21507000  0.09397700  1
  H  1066  1  0.21350000  0.18336100  0.05044300  1
  H  1067  1  0.18471200  0.20595400  0.06873800  1
  H  1068  1  0.21500400  0.15202900  0.04240900  1
  H  1070  1  0.02334200  0.18498600  0.12943000  1
  H  1071  1  0.05743000  0.16602300  0.13157400  1
  H  1072  1  0.01404900  0.16764300  0.11529000  1
  H  1074  1  0.10413000  0.11245500  0.08465900  1
  H  1075  1  0.15598700  0.10352700  0.07597200  1
  H  1076  1  0.10581700  0.10646500  0.06272300  1
  H  1087  1  0.61375100  0.84409300  0.03393200  1
  H  1096  1  0.53562800  0.80057700  0.06543000  1
  H  1097  1  0.56469800  0.81892000  0.04292500  1
  H  1098  1  0.53403500  0.79238400  0.09672500  1
  H  1100  1  0.72722300  0.87909900  0.06416400  1
  H  1101  1  0.69323900  0.88121800  0.08315600  1
  H  1102  1  0.73632300  0.86483900  0.08142400  1
  H  1104  1  0.64548200  0.83425200  0.13648500  1
  H  1105  1  0.59354000  0.82559600  0.14537400  1
  H  1106  1  0.64358700  0.81229700  0.14238500  1
  H  1117  1  0.11394800  0.65472500  0.96488500  1
  H  1126  1  0.03582300  0.69828200  0.93344400  1
  H  1127  1  0.06490500  0.67991100  0.95592500  1
  H  1128  1  0.03421800  0.70651300  0.90216100  1
  H  1130  1  0.22738300  0.61974300  0.93460300  1
  H  1131  1  0.19337300  0.61766000  0.91561500  1
  H  1132  1  0.23650800  0.63402000  0.91736000  1
  H  1134  1  0.14564400  0.66469500  0.86233900  1
  H  1135  1  0.09372300  0.67337500  0.85345800  1
  H  1136  1  0.14378300  0.68666100  0.85647900  1
  H  1147  1  0.36193300  0.71507900  0.09401400  1
  H  1156  1  0.28400000  0.68344300  0.05054200  1
  H  1157  1  0.31301600  0.70600600  0.06882800  1
  H  1158  1  0.28237300  0.65211700  0.04246300  1
  H  1160  1  0.47494000  0.68490300  0.12927400  1
  H  1161  1  0.44079100  0.66595900  0.13146800  1
  H  1162  1  0.48397000  0.66756000  0.11511000  1
  H  1164  1  0.39309100  0.61245600  0.08468700  1
  H  1165  1  0.34129300  0.60354800  0.07593400  1
  H  1166  1  0.39158100  0.60649000  0.06274700  1
  H  1177  1  0.86243300  0.78382200  0.90489600  1
  H  1186  1  0.78460800  0.81544900  0.94839400  1
  H  1187  1  0.81369900  0.79288300  0.93012800  1
  H  1188  1  0.78272400  0.84679100  0.95640000  1
  H  1190  1  0.97478400  0.81407000  0.86941100  1
  H  1191  1  0.94040400  0.83295600  0.86721500  1
  H  1192  1  0.98376800  0.83146200  0.88351700  1
  H  1194  1  0.89274200  0.88651100  0.91398500  1
  H  1195  1  0.84087300  0.89536300  0.92273700  1
  H  1196  1  0.89122200  0.89252200  0.93591400  1
  H  1207  1  0.88680500  0.65485700  0.46506400  1
  H  1216  1  0.96476600  0.69831200  0.43341600  1
  H  1217  1  0.93572400  0.68004000  0.45598500  1
  H  1218  1  0.96643700  0.70637200  0.40208600  1
  H  1220  1  0.77397000  0.61953100  0.43487400  1
  H  1221  1  0.80817500  0.61733700  0.41594600  1
  H  1222  1  0.76494400  0.63368000  0.41751800  1
  H  1224  1  0.85584700  0.66410400  0.36242400  1
  H  1225  1  0.90766000  0.67285100  0.35352400  1
  H  1226  1  0.85737100  0.68604100  0.35644400  1
  H  1237  1  0.38671500  0.84402200  0.53377700  1
  H  1246  1  0.46468000  0.80052700  0.56536800  1
  H  1247  1  0.43562800  0.81882600  0.54282300  1
  H  1248  1  0.46635800  0.79242700  0.59668900  1
  H  1250  1  0.27391000  0.87932200  0.56401800  1
  H  1251  1  0.30814600  0.88148500  0.58294200  1
  H  1252  1  0.26487800  0.86515600  0.58135900  1
  H  1254  1  0.35582500  0.83465600  0.63641200  1
  H  1255  1  0.40760900  0.82588000  0.64530400  1
  H  1256  1  0.35729600  0.81270900  0.64235200  1
  H  1267  1  0.13517900  0.78393900  0.40471300  1
  H  1276  1  0.21327800  0.81541800  0.44825100  1
  H  1277  1  0.18423700  0.79292300  0.42988800  1
  H  1278  1  0.21481500  0.84670500  0.45647200  1
  H  1280  1  0.02152800  0.81416300  0.36978200  1
  H  1281  1  0.05545700  0.83316800  0.36766600  1
  H  1282  1  0.01242000  0.83140700  0.38405900  1
  H  1284  1  0.10320700  0.88646900  0.41466700  1
  H  1285  1  0.15512900  0.89536800  0.42332900  1
  H  1286  1  0.10509300  0.89234900  0.43662700  1
  H  1297  1  0.63477800  0.71485600  0.59407500  1
  H  1306  1  0.71276700  0.68339000  0.55050800  1
  H  1307  1  0.68366900  0.70588600  0.56885800  1
  H  1308  1  0.71451400  0.65209100  0.54234500  1
  H  1310  1  0.52166300  0.68456900  0.62919100  1
  H  1311  1  0.55578000  0.66560900  0.63130500  1
  H  1312  1  0.51258700  0.66728500  0.61495900  1
  H  1314  1  0.60349800  0.61227000  0.58430900  1
  H  1315  1  0.65547500  0.60342000  0.57564200  1
  H  1316  1  0.60537900  0.60635600  0.56235700  1
  H  1327  1  0.11339600  0.34407400  0.53398600  1
  H  1336  1  0.03483400  0.30059700  0.56539900  1
  H  1337  1  0.06420300  0.31891500  0.54292300  1
  H  1338  1  0.03289700  0.29242300  0.59670100  1
  H  1340  1  0.22656300  0.37907600  0.56437600  1
  H  1341  1  0.19231700  0.38124500  0.58329700  1
  H  1342  1  0.23536700  0.36484300  0.58167800  1
  H  1344  1  0.14360800  0.33441900  0.63660400  1
  H  1345  1  0.09166000  0.32570000  0.64542400  1
  H  1346  1  0.14187300  0.31246800  0.64251700  1
  H  1357  1  0.61358600  0.15473500  0.46485900  1
  H  1366  1  0.53500500  0.19825700  0.43351600  1
  H  1367  1  0.56439700  0.17991100  0.45596300  1
  H  1368  1  0.53304000  0.20647700  0.40222600  1
  H  1370  1  0.72670800  0.11976500  0.43440500  1
  H  1371  1  0.69243000  0.11763300  0.41548700  1
  H  1372  1  0.73551700  0.13402000  0.41712100  1
  H  1374  1  0.64367500  0.16452600  0.36224700  1
  H  1375  1  0.59175300  0.17327800  0.35344000  1
  H  1376  1  0.64199700  0.18648900  0.35637700  1
  H  1387  1  0.86334300  0.21487100  0.59410500  1
  H  1396  1  0.78481500  0.18348100  0.55060200  1
  H  1397  1  0.81415400  0.20594600  0.56893900  1
  H  1398  1  0.78292000  0.15218600  0.54239900  1
  H  1400  1  0.97666100  0.18448400  0.62904000  1
  H  1401  1  0.94246700  0.16554700  0.63120300  1
  H  1402  1  0.98547100  0.16719700  0.61478700  1
  H  1404  1  0.89373000  0.11227200  0.58434800  1
  H  1405  1  0.84180500  0.10344600  0.57561700  1
  H  1406  1  0.89202000  0.10637800  0.56239100  1
  H  1417  1  0.36380000  0.28404200  0.40479500  1
  H  1426  1  0.28535800  0.31542400  0.44831800  1
  H  1427  1  0.31478100  0.29295500  0.43000400  1
  H  1428  1  0.28321200  0.34673300  0.45645000  1
  H  1430  1  0.47650500  0.31449900  0.36964800  1
  H  1431  1  0.44208700  0.33338000  0.36747900  1
  H  1432  1  0.48526200  0.33183400  0.38384400  1
  H  1434  1  0.39337800  0.38670600  0.41432500  1
  H  1435  1  0.34137300  0.39547800  0.42304800  1
  H  1436  1  0.39163700  0.39264300  0.43627100  1
  H  1447  1  0.30234400  0.29395900  0.02968280  1
  H  1456  1  0.23915800  0.34020300  0.03909980  1
  H  1459  1  0.23076100  0.33618200  0.99289000  1
  H  1460  1  0.21136800  0.29059800  0.00476483  1
  H  1461  1  0.42329100  0.32420000  0.99798000  1
  H  1462  1  0.08203400  0.31675300  0.04942980  1
  H  1464  1  0.13121500  0.34563800  0.05882380  1
  H  1466  1  0.12323600  0.28092400  0.04695780  1
  H  1468  1  0.34892500  0.33896100  0.97434100  1
  H  1470  1  0.39656900  0.28625900  0.00272083  1
  H  1477  1  0.80237800  0.66878600  0.02073680  1
  H  1486  1  0.73919800  0.62253700  0.01130380  1
  H  1489  1  0.73062700  0.62658700  0.05750980  1
  H  1490  1  0.71130600  0.67215900  0.04559980  1
  H  1491  1  0.92317800  0.63852500  0.05250380  1
  H  1492  1  0.58206500  0.64595500  0.00094683  1
  H  1494  1  0.63127100  0.61705300  0.99161500  1
  H  1496  1  0.62324700  0.68181000  0.00340183  1
  H  1498  1  0.84880000  0.62375300  0.07609280  1
  H  1500  1  0.89651500  0.67647700  0.04774080  1
  H  1507  1  0.55225300  0.47691300  0.83777400  1
  H  1516  1  0.48915000  0.46748100  0.88402600  1
  H  1519  1  0.48067000  0.51369900  0.88000100  1
  H  1520  1  0.46122600  0.50181900  0.83443500  1
  H  1521  1  0.67319600  0.50863600  0.86800500  1
  H  1522  1  0.33199000  0.45713900  0.86062200  1
  H  1524  1  0.38123700  0.44777100  0.88950200  1
  H  1526  1  0.37319500  0.45961300  0.82476800  1
  H  1528  1  0.59887100  0.53225200  0.88279500  1
  H  1530  1  0.64644200  0.50387600  0.83005900  1
  H  1537  1  0.05230800  0.48583600  0.21261000  1
  H  1546  1  0.98911700  0.49521400  0.16635300  1
  H  1549  1  0.98062600  0.44899300  0.17045800  1
  H  1550  1  0.96128400  0.46095500  0.21600900  1
  H  1551  1  0.17317900  0.45410100  0.18235500  1
  H  1552  1  0.83195900  0.50555700  0.18975800  1
  H  1554  1  0.88116500  0.51487900  0.16085000  1
  H  1556  1  0.87313700  0.50314600  0.22560900  1
  H  1558  1  0.09887900  0.43047200  0.16762100  1
  H  1560  1  0.14651600  0.45886900  0.22030800  1
  H  1567  1  0.69572900  0.16896000  0.02112080  1
  H  1576  1  0.75875800  0.12275500  0.01132280  1
  H  1579  1  0.76941300  0.12679100  0.05751880  1
  H  1580  1  0.78889900  0.17225100  0.04559580  1
  H  1581  1  0.57652700  0.13839100  0.05330180  1
  H  1582  1  0.91586700  0.14597800  0.00052783  1
  H  1584  1  0.86635900  0.11716100  0.99135300  1
  H  1586  1  0.87465400  0.18198100  0.00314783  1
  H  1588  1  0.65172400  0.12371400  0.07659780  1
  H  1590  1  0.60241200  0.17639900  0.04843280  1
  H  1597  1  0.19568100  0.79378900  0.02923880  1
  H  1606  1  0.25873600  0.84000000  0.03901880  1
  H  1609  1  0.26954900  0.83590200  0.99282700  1
  H  1610  1  0.28896800  0.79045300  0.00482383  1
  H  1611  1  0.07663800  0.82436900  0.99698300  1
  H  1612  1  0.41583400  0.81679700  0.04986380  1
  H  1614  1  0.36631900  0.84565000  0.05894480  1
  H  1616  1  0.37459200  0.78077200  0.04729380  1
  H  1618  1  0.15183500  0.83904200  0.97372500  1
  H  1620  1  0.10243500  0.78635000  0.00189583  1
  H  1627  1  0.44645200  0.98573200  0.21257800  1
  H  1636  1  0.50971100  0.99508000  0.16631300  1
  H  1639  1  0.51786200  0.94888000  0.17036600  1
  H  1640  1  0.53733100  0.96079500  0.21597100  1
  H  1641  1  0.32537600  0.95406200  0.18235800  1
  H  1642  1  0.66682100  0.00536651  0.18979900  1
  H  1644  1  0.61777200  0.01470150  0.16087400  1
  H  1646  1  0.62539700  0.00298551  0.22563100  1
  H  1648  1  0.39953200  0.93041000  0.16758400  1
  H  1650  1  0.35219600  0.95881000  0.22031200  1
  H  1657  1  0.94639700  0.97698700  0.83781600  1
  H  1666  1  0.00976900  0.96769800  0.88407200  1
  H  1669  1  0.01787600  0.01391150  0.87994500  1
  H  1670  1  0.03723800  0.00193651  0.83437100  1
  H  1671  1  0.82536300  0.00865151  0.86806300  1
  H  1672  1  0.16689600  0.95745900  0.86058600  1
  H  1674  1  0.11789000  0.94813400  0.88952900  1
  H  1676  1  0.12547100  0.95978100  0.82475600  1
  H  1678  1  0.89947400  0.03233250  0.88277000  1
  H  1680  1  0.85208900  0.00389451  0.83010200  1
  H  1687  1  0.80239500  0.79398400  0.52956600  1
  H  1696  1  0.73905500  0.84023900  0.53889500  1
  H  1699  1  0.73100900  0.83619600  0.49270300  1
  H  1700  1  0.71155800  0.79056900  0.50461200  1
  H  1701  1  0.92350300  0.82422700  0.49794400  1
  H  1702  1  0.58198400  0.81671000  0.54917600  1
  H  1704  1  0.63098100  0.84564100  0.55853700  1
  H  1706  1  0.62339700  0.78090900  0.54680600  1
  H  1708  1  0.84931800  0.83896600  0.47425200  1
  H  1710  1  0.89674200  0.78627800  0.50266800  1
  H  1717  1  0.30239900  0.16875700  0.52083400  1
  H  1726  1  0.23909600  0.12249100  0.51151200  1
  H  1729  1  0.23094000  0.12657200  0.55770600  1
  H  1730  1  0.21150000  0.17217800  0.54575700  1
  H  1731  1  0.42343500  0.13852400  0.55251100  1
  H  1732  1  0.08198600  0.14597400  0.50122300  1
  H  1734  1  0.13102000  0.11703300  0.49191500  1
  H  1736  1  0.12336700  0.18180600  0.50357100  1
  H  1738  1  0.34928700  0.12376800  0.57616900  1
  H  1740  1  0.39668400  0.17647800  0.54776000  1
  H  1747  1  0.05303400  0.97734000  0.33759300  1
  H  1756  1  0.99010800  0.96752600  0.38381300  1
  H  1759  1  0.97934800  0.01372650  0.37976700  1
  H  1760  1  0.95979500  0.00179351  0.33432400  1
  H  1761  1  0.17223000  0.00954851  0.36814300  1
  H  1762  1  0.83294300  0.95672300  0.36065100  1
  H  1764  1  0.88252400  0.94758800  0.38946400  1
  H  1766  1  0.87421900  0.95932600  0.32461700  1
  H  1768  1  0.09707500  0.03281650  0.38285700  1
  H  1770  1  0.14632300  0.00465551  0.33014000  1
  H  1777  1  0.55305100  0.98540000  0.71279300  1
  H  1786  1  0.49011000  0.99517300  0.66656400  1
  H  1789  1  0.47933900  0.94896500  0.67067100  1
  H  1790  1  0.45981800  0.96095800  0.71609100  1
  H  1791  1  0.67222900  0.95318600  0.68224200  1
  H  1792  1  0.33290400  0.00595851  0.68969400  1
  H  1794  1  0.38249100  0.01506750  0.66087100  1
  H  1796  1  0.37415500  0.00341351  0.72573700  1
  H  1798  1  0.59711600  0.92990700  0.66756100  1
  H  1800  1  0.64634000  0.95807600  0.72024900  1
  H  1807  1  0.19569100  0.66893100  0.52124000  1
  H  1816  1  0.25881800  0.62271700  0.51150600  1
  H  1819  1  0.26912600  0.62675700  0.55770000  1
  H  1820  1  0.28872000  0.67223900  0.54578000  1
  H  1821  1  0.07628300  0.63837200  0.55333500  1
  H  1822  1  0.41594300  0.64598300  0.50082000  1
  H  1824  1  0.36658200  0.61714700  0.49163900  1
  H  1826  1  0.37444900  0.68197800  0.50335600  1
  H  1828  1  0.15129100  0.62370600  0.57668500  1
  H  1830  1  0.10225800  0.67638800  0.54848800  1
  H  1837  1  0.69564900  0.29381300  0.52913700  1
  H  1846  1  0.75884200  0.34004100  0.53882800  1
  H  1849  1  0.76926600  0.33592600  0.49265700  1
  H  1850  1  0.78877300  0.29043100  0.50467800  1
  H  1851  1  0.57639700  0.32437400  0.49696500  1
  H  1852  1  0.91590600  0.31676300  0.54960500  1
  H  1854  1  0.86657600  0.34566000  0.55866100  1
  H  1856  1  0.87444400  0.28076100  0.54714000  1
  H  1858  1  0.65139500  0.33904400  0.47365400  1
  H  1860  1  0.60228900  0.28635200  0.50185400  1
  H  1867  1  0.94568300  0.48530300  0.71276200  1
  H  1876  1  0.00878300  0.49504100  0.66653500  1
  H  1879  1  0.01919300  0.44885400  0.67059800  1
  H  1880  1  0.03877300  0.46080500  0.71607900  1
  H  1881  1  0.82634400  0.45315800  0.68221600  1
  H  1882  1  0.16589500  0.50577300  0.68978900  1
  H  1884  1  0.11651800  0.51488800  0.66093000  1
  H  1886  1  0.12438200  0.50324800  0.72580300  1
  H  1888  1  0.90133400  0.42984900  0.66751700  1
  H  1890  1  0.85231000  0.45803400  0.72022800  1
  H  1897  1  0.44559300  0.47740800  0.33764300  1
  H  1906  1  0.50881100  0.46774900  0.38387500  1
  H  1909  1  0.51920000  0.51393300  0.37971300  1
  H  1910  1  0.53866900  0.50188100  0.33424500  1
  H  1911  1  0.32632200  0.50957900  0.36819300  1
  H  1912  1  0.66589600  0.45700100  0.36060200  1
  H  1914  1  0.61658100  0.44794400  0.38950100  1
  H  1916  1  0.62443700  0.45944400  0.32459800  1
  H  1918  1  0.40128300  0.53290500  0.38282900  1
  H  1920  1  0.35222400  0.50468600  0.33017500  1
  H  1927  1  0.02423400  0.27876400  0.01006380  1
  H  1936  1  0.89098700  0.24275200  0.00645783  1
  H  1937  1  0.94467800  0.26647100  0.00436383  1
  H  1938  1  0.87462900  0.21243700  0.01557080  1
  H  1940  1  0.16670000  0.25432600  0.03328180  1
  H  1941  1  0.15172600  0.23266400  0.02964680  1
  H  1942  1  0.13857700  0.24240400  0.04975180  1
  H  1944  1  0.02782700  0.18134000  0.04515080  1
  H  1945  1  0.98773000  0.16851200  0.03346180  1
  H  1946  1  0.97298000  0.17630400  0.05434380  1
  H  1957  1  0.52409000  0.68393400  0.04027080  1
  H  1966  1  0.39091900  0.71998000  0.04391780  1
  H  1967  1  0.44456000  0.69624200  0.04598080  1
  H  1968  1  0.37463100  0.75031400  0.03484680  1
  H  1970  1  0.66666667  0.70837400  0.01712980  1
  H  1971  1  0.65172400  0.73003600  0.02077880  1
  H  1972  1  0.63855400  0.72031500  0.00066683  1
  H  1974  1  0.52794700  0.78143200  0.00537383  1
  H  1975  1  0.48781600  0.79425200  0.01705680  1
  H  1976  1  0.47313200  0.78647900  0.99616200  1
  H  1987  1  0.27403600  0.49646500  0.82261200  1
  H  1996  1  0.14077800  0.49998000  0.78659400  1
  H  1997  1  0.19446000  0.50211800  0.81031300  1
  H  1998  1  0.12446000  0.49083900  0.75628200  1
  H  2000  1  0.41661200  0.47332600  0.79818800  1
  H  2001  1  0.40164100  0.47695600  0.77652400  1
  H  2002  1  0.38856800  0.45684200  0.78626000  1
  H  2004  1  0.27781600  0.46136400  0.72519200  1
  H  2005  1  0.23763800  0.47301300  0.71236200  1
  H  2006  1  0.22302500  0.45212100  0.72016300  1
  H  2017  1  0.77403000  0.46627200  0.22777200  1
  H  2026  1  0.64079500  0.46270100  0.26379400  1
  H  2027  1  0.69448200  0.46058400  0.24007500  1
  H  2028  1  0.62445500  0.47183600  0.29410600  1
  H  2030  1  0.91656100  0.48944700  0.25219900  1
  H  2031  1  0.90159000  0.48582000  0.27386300  1
  H  2032  1  0.88847600  0.50592900  0.26412100  1
  H  2034  1  0.77774600  0.50134800  0.32520300  1
  H  2035  1  0.73758400  0.48968600  0.33803000  1
  H  2036  1  0.72293500  0.51057500  0.33023100  1
  H  2047  1  0.97403800  0.68554700  0.00559483  1
  H  2056  1  0.09801900  0.72530200  0.99812200  1
  H  2057  1  0.04759100  0.70060100  0.99646400  1
  H  2058  1  0.11445800  0.75465400  0.00991883  1
  H  2060  1  0.84249100  0.70313300  0.04067480  1
  H  2061  1  0.85237300  0.72541700  0.03893080  1
  H  2062  1  0.87661900  0.71378200  0.05646780  1
  H  2064  1  0.97545300  0.77768300  0.05317380  1
  H  2065  1  0.00677500  0.79289100  0.04072780  1
  H  2066  1  0.03340600  0.78306100  0.05898680  1
  H  2077  1  0.47396600  0.27717700  0.04485580  1
  H  2086  1  0.59803700  0.23744700  0.05226380  1
  H  2087  1  0.54755900  0.26213000  0.05396180  1
  H  2088  1  0.61451800  0.20811300  0.04043280  1
  H  2090  1  0.34243500  0.25960300  0.00976283  1
  H  2091  1  0.35232500  0.23731800  0.01148480  1
  H  2092  1  0.37658200  0.24897400  0.99396400  1
  H  2094  1  0.47554600  0.18510200  0.99715300  1
  H  2095  1  0.50689500  0.16988300  0.00957483  1
  H  2096  1  0.53351600  0.17975300  0.99133500  1
  H  2107  1  0.72384900  0.46172900  0.82100300  1
  H  2116  1  0.84792400  0.45426200  0.78128300  1
  H  2117  1  0.79743500  0.45259800  0.80596700  1
  H  2118  1  0.86441900  0.46606000  0.75193700  1
  H  2120  1  0.59238000  0.49683600  0.80339500  1
  H  2121  1  0.60227500  0.49508200  0.78111300  1
  H  2122  1  0.62653900  0.51261800  0.79274500  1
  H  2124  1  0.72549600  0.50933800  0.72888100  1
  H  2125  1  0.75682100  0.49688600  0.71368000  1
  H  2126  1  0.78346300  0.51514100  0.72351400  1
  H  2137  1  0.22397200  0.50101900  0.22937200  1
  H  2146  1  0.34796300  0.50847100  0.26912600  1
  H  2147  1  0.29751900  0.51014700  0.24443200  1
  H  2148  1  0.36439900  0.49666500  0.29847400  1
  H  2150  1  0.09241700  0.46594100  0.24694800  1
  H  2151  1  0.10230000  0.46767400  0.26923300  1
  H  2152  1  0.12653900  0.45014200  0.25759000  1
  H  2154  1  0.22542100  0.45338800  0.32148400  1
  H  2155  1  0.25671900  0.46583500  0.33669700  1
  H  2156  1  0.28338100  0.44758400  0.32686500  1
  H  2167  1  0.72454600  0.96612000  0.22783000  1
  H  2176  1  0.85779800  0.96259400  0.26384700  1
  H  2177  1  0.80411500  0.96046200  0.24012800  1
  H  2178  1  0.87412800  0.97173500  0.29415500  1
  H  2180  1  0.58202600  0.98932000  0.25223700  1
  H  2181  1  0.59699000  0.98571000  0.27390300  1
  H  2182  1  0.61010800  0.00580851  0.26414600  1
  H  2184  1  0.72084700  0.00127651  0.32523200  1
  H  2185  1  0.76097900  0.98961300  0.33806600  1
  H  2186  1  0.77566200  0.01049550  0.33026200  1
  H  2197  1  0.22444500  0.99666100  0.82252300  1
  H  2206  1  0.35772300  0.00018251  0.78651600  1
  H  2207  1  0.30401700  0.00232451  0.81022800  1
  H  2208  1  0.37408500  0.99102400  0.75621500  1
  H  2210  1  0.08198500  0.97338800  0.79813000  1
  H  2211  1  0.09691600  0.97699500  0.77646000  1
  H  2212  1  0.11014500  0.95691200  0.78623000  1
  H  2214  1  0.22086400  0.96142900  0.72514600  1
  H  2215  1  0.26099600  0.97308300  0.71230100  1
  H  2216  1  0.27570300  0.95221400  0.72013800  1
  H  2227  1  0.27488200  0.00096451  0.22936900  1
  H  2236  1  0.15081300  0.00843251  0.26909000  1
  H  2237  1  0.20129900  0.01009650  0.24440600  1
  H  2238  1  0.13431700  0.99663300  0.29843700  1
  H  2240  1  0.40634100  0.96585000  0.24696900  1
  H  2241  1  0.39647400  0.96761100  0.26925300  1
  H  2242  1  0.37218300  0.95007500  0.25762800  1
  H  2244  1  0.27326700  0.95336900  0.32149600  1
  H  2245  1  0.24191900  0.96581400  0.33669900  1
  H  2246  1  0.21530100  0.94755700  0.32685800  1
  H  2257  1  0.77476600  0.96172900  0.82103900  1
  H  2266  1  0.65076400  0.95427200  0.78129000  1
  H  2267  1  0.70122200  0.95259400  0.80598200  1
  H  2268  1  0.63429800  0.96608600  0.75194800  1
  H  2270  1  0.90628000  0.99682900  0.80346800  1
  H  2271  1  0.89642000  0.99508900  0.78118100  1
  H  2272  1  0.87213900  0.01261850  0.79281900  1
  H  2274  1  0.77327300  0.00935851  0.72892800  1
  H  2275  1  0.74194500  0.99692200  0.71371500  1
  H  2276  1  0.71531300  0.01517150  0.72356000  1
  H  2287  1  0.52436000  0.77870000  0.50994700  1
  H  2296  1  0.39096400  0.74274400  0.50651700  1
  H  2297  1  0.44473900  0.76643000  0.50432400  1
  H  2298  1  0.37452900  0.71246300  0.51572500  1
  H  2300  1  0.66681700  0.75426400  0.53317400  1
  H  2301  1  0.65176600  0.73259900  0.52959700  1
  H  2302  1  0.63871500  0.74239300  0.54968500  1
  H  2304  1  0.52772600  0.68137400  0.54531300  1
  H  2305  1  0.48753900  0.66853500  0.53367700  1
  H  2306  1  0.47290100  0.67638600  0.55454700  1
  H  2317  1  0.02420700  0.18397700  0.54040900  1
  H  2326  1  0.89089300  0.21996900  0.54390000  1
  H  2327  1  0.94461100  0.19626300  0.54605000  1
  H  2328  1  0.87453100  0.25027200  0.53474900  1
  H  2330  1  0.16675400  0.20841400  0.51725900  1
  H  2331  1  0.15177000  0.23008100  0.52085900  1
  H  2332  1  0.13866200  0.22031300  0.50076300  1
  H  2334  1  0.02785200  0.28139500  0.50528200  1
  H  2335  1  0.98763900  0.29422000  0.51692000  1
  H  2336  1  0.97305300  0.28639800  0.49603400  1
  H  2347  1  0.47399700  0.18554000  0.50559600  1
  H  2356  1  0.59797400  0.22529500  0.49809900  1
  H  2357  1  0.54754100  0.20059500  0.49644900  1
  H  2358  1  0.61442000  0.25465000  0.50988300  1
  H  2360  1  0.34252000  0.20312200  0.54071100  1
  H  2361  1  0.35236400  0.22540600  0.53895100  1
  H  2362  1  0.37667000  0.21378600  0.55648700  1
  H  2364  1  0.47547500  0.27768400  0.55316400  1
  H  2365  1  0.50676600  0.29289000  0.54070500  1
  H  2366  1  0.53343600  0.28306800  0.55896000  1
  H  2377  1  0.97398900  0.77719100  0.54484700  1
  H  2386  1  0.09797700  0.73743800  0.55231600  1
  H  2387  1  0.04751700  0.76212900  0.55399400  1
  H  2388  1  0.11446000  0.70809900  0.54049300  1
  H  2390  1  0.84254000  0.75963500  0.50970500  1
  H  2391  1  0.85240800  0.73734900  0.51143300  1
  H  2392  1  0.87671000  0.74899900  0.49391600  1
  H  2394  1  0.97558900  0.68511000  0.49715700  1
  H  2395  1  0.00687300  0.66989000  0.50960300  1
  H  2396  1  0.03356600  0.67973900  0.49136600  1
  H  2407  1  0.38650500  0.38679100  0.99088000  1
  H  2416  1  0.46399300  0.43028000  0.95913200  1
  H  2417  1  0.43527100  0.41198400  0.98173500  1
  H  2418  1  0.46528900  0.43835200  0.92780600  1
  H  2420  1  0.27334300  0.35145600  0.96086600  1
  H  2421  1  0.30727400  0.34930900  0.94186600  1
  H  2422  1  0.26400000  0.36562500  0.94355000  1
  H  2424  1  0.35391200  0.39621300  0.88830700  1
  H  2425  1  0.40571800  0.40489100  0.87933200  1
  H  2426  1  0.35560000  0.41815200  0.88233700  1
  H  2437  1  0.88635300  0.57597400  0.05950580  1
  H  2446  1  0.96387600  0.53245000  0.09119880  1
  H  2447  1  0.93513200  0.55077100  0.06861780  1
  H  2448  1  0.96517600  0.52433900  0.12251200  1
  H  2450  1  0.77316500  0.61126200  0.08956480  1
  H  2451  1  0.80710300  0.61337600  0.10856600  1
  H  2452  1  0.76380900  0.59706900  0.10686100  1
  H  2454  1  0.85379100  0.56642100  0.16206800  1
  H  2455  1  0.90556900  0.55771700  0.17103900  1
  H  2456  1  0.85544100  0.54447200  0.16799900  1
  H  2467  1  0.63657800  0.51567700  0.93057900  1
  H  2476  1  0.71408700  0.54741100  0.97407700  1
  H  2477  1  0.68536800  0.52481400  0.95577100  1
  H  2478  1  0.71535500  0.57873100  0.98216800  1
  H  2480  1  0.52323200  0.54568300  0.89532000  1
  H  2481  1  0.55711100  0.56469600  0.89317200  1
  H  2482  1  0.51389700  0.56298500  0.90950700  1
  H  2484  1  0.60382700  0.61823200  0.94008400  1
  H  2485  1  0.65562300  0.62721500  0.94876400  1
  H  2486  1  0.60551900  0.62418900  0.96202700  1
  H  2497  1  0.13609400  0.44701700  0.11974900  1
  H  2506  1  0.21350000  0.41530800  0.07621480  1
  H  2507  1  0.18471200  0.43790100  0.09450980  1
  H  2508  1  0.21500400  0.38397600  0.06818080  1
  H  2510  1  0.02334200  0.41693300  0.15520200  1
  H  2511  1  0.05743000  0.39797000  0.15734600  1
  H  2512  1  0.01404900  0.39959000  0.14106200  1
  H  2514  1  0.10413000  0.34440200  0.11043100  1
  H  2515  1  0.15598700  0.33547400  0.10174400  1
  H  2516  1  0.10581700  0.33841200  0.08849480  1
  H  2527  1  0.61375100  0.07603950  0.05970380  1
  H  2536  1  0.53562800  0.03252350  0.09120180  1
  H  2537  1  0.56469800  0.05086650  0.06869680  1
  H  2538  1  0.53403500  0.02433050  0.12249700  1
  H  2540  1  0.72722300  0.11104600  0.08993580  1
  H  2541  1  0.69323900  0.11316500  0.10892800  1
  H  2542  1  0.73632300  0.09678550  0.10719600  1
  H  2544  1  0.64548200  0.06619850  0.16225700  1
  H  2545  1  0.59354000  0.05754250  0.17114600  1
  H  2546  1  0.64358700  0.04424350  0.16815700  1
  H  2557  1  0.11394800  0.88667200  0.99065700  1
  H  2566  1  0.03582300  0.93022900  0.95921600  1
  H  2567  1  0.06490500  0.91185800  0.98169700  1
  H  2568  1  0.03421800  0.93846000  0.92793300  1
  H  2570  1  0.22738300  0.85169000  0.96037500  1
  H  2571  1  0.19337300  0.84960700  0.94138700  1
  H  2572  1  0.23650800  0.86596700  0.94313200  1
  H  2574  1  0.14564400  0.89664200  0.88811100  1
  H  2575  1  0.09372300  0.90532200  0.87923000  1
  H  2576  1  0.14378300  0.91860800  0.88225100  1
  H  2587  1  0.36193300  0.94702600  0.11978600  1
  H  2596  1  0.28400000  0.91539000  0.07631380  1
  H  2597  1  0.31301600  0.93795300  0.09459980  1
  H  2598  1  0.28237300  0.88406400  0.06823480  1
  H  2600  1  0.47494000  0.91685000  0.15504600  1
  H  2601  1  0.44079100  0.89790600  0.15724000  1
  H  2602  1  0.48397000  0.89950700  0.14088200  1
  H  2604  1  0.39309100  0.84440300  0.11045900  1
  H  2605  1  0.34129300  0.83549500  0.10170600  1
  H  2606  1  0.39158100  0.83843700  0.08851880  1
  H  2617  1  0.86243300  0.01576850  0.93066800  1
  H  2626  1  0.78460800  0.04739550  0.97416600  1
  H  2627  1  0.81369900  0.02482950  0.95590000  1
  H  2628  1  0.78272400  0.07873750  0.98217200  1
  H  2630  1  0.97478400  0.04601650  0.89518300  1
  H  2631  1  0.94040400  0.06490250  0.89298700  1
  H  2632  1  0.98376800  0.06340850  0.90928900  1
  H  2634  1  0.89274200  0.11845800  0.93975700  1
  H  2635  1  0.84087300  0.12731000  0.94850900  1
  H  2636  1  0.89122200  0.12446900  0.96168600  1
  H  2647  1  0.88680500  0.88680400  0.49083600  1
  H  2656  1  0.96476600  0.93025900  0.45918800  1
  H  2657  1  0.93572400  0.91198700  0.48175700  1
  H  2658  1  0.96643700  0.93831900  0.42785800  1
  H  2660  1  0.77397000  0.85147800  0.46064600  1
  H  2661  1  0.80817500  0.84928400  0.44171800  1
  H  2662  1  0.76494400  0.86562700  0.44329000  1
  H  2664  1  0.85584700  0.89605100  0.38819600  1
  H  2665  1  0.90766000  0.90479800  0.37929600  1
  H  2666  1  0.85737100  0.91798800  0.38221600  1
  H  2677  1  0.38671500  0.07596850  0.55954900  1
  H  2686  1  0.46468000  0.03247350  0.59114000  1
  H  2687  1  0.43562800  0.05077250  0.56859500  1
  H  2688  1  0.46635800  0.02437350  0.62246100  1
  H  2690  1  0.27391000  0.11126900  0.58979000  1
  H  2691  1  0.30814600  0.11343200  0.60871400  1
  H  2692  1  0.26487800  0.09710250  0.60713100  1
  H  2694  1  0.35582500  0.06660250  0.66218400  1
  H  2695  1  0.40760900  0.05782650  0.67107600  1
  H  2696  1  0.35729600  0.04465550  0.66812400  1
  H  2707  1  0.13517900  0.01588550  0.43048500  1
  H  2716  1  0.21327800  0.04736450  0.47402300  1
  H  2717  1  0.18423700  0.02486950  0.45566000  1
  H  2718  1  0.21481500  0.07865150  0.48224400  1
  H  2720  1  0.02152800  0.04610950  0.39555400  1
  H  2721  1  0.05545700  0.06511450  0.39343800  1
  H  2722  1  0.01242000  0.06335350  0.40983100  1
  H  2724  1  0.10320700  0.11841600  0.44043900  1
  H  2725  1  0.15512900  0.12731500  0.44910100  1
  H  2726  1  0.10509300  0.12429600  0.46239900  1
  H  2737  1  0.63477800  0.94680300  0.61984700  1
  H  2746  1  0.71276700  0.91533700  0.57628000  1
  H  2747  1  0.68366900  0.93783300  0.59463000  1
  H  2748  1  0.71451400  0.88403800  0.56811700  1
  H  2750  1  0.52166300  0.91651600  0.65496300  1
  H  2751  1  0.55578000  0.89755600  0.65707700  1
  H  2752  1  0.51258700  0.89923200  0.64073100  1
  H  2754  1  0.60349800  0.84421700  0.61008100  1
  H  2755  1  0.65547500  0.83536700  0.60141400  1
  H  2756  1  0.60537900  0.83830300  0.58812900  1
  H  2767  1  0.11339600  0.57602100  0.55975800  1
  H  2776  1  0.03483400  0.53254400  0.59117100  1
  H  2777  1  0.06420300  0.55086200  0.56869500  1
  H  2778  1  0.03289700  0.52437000  0.62247300  1
  H  2780  1  0.22656300  0.61102300  0.59014800  1
  H  2781  1  0.19231700  0.61319200  0.60906900  1
  H  2782  1  0.23536700  0.59679000  0.60745000  1
  H  2784  1  0.14360800  0.56636600  0.66237600  1
  H  2785  1  0.09166000  0.55764700  0.67119600  1
  H  2786  1  0.14187300  0.54441500  0.66828900  1
  H  2797  1  0.61358600  0.38668200  0.49063100  1
  H  2806  1  0.53500500  0.43020400  0.45928800  1
  H  2807  1  0.56439700  0.41185800  0.48173500  1
  H  2808  1  0.53304000  0.43842400  0.42799800  1
  H  2810  1  0.72670800  0.35171200  0.46017700  1
  H  2811  1  0.69243000  0.34958000  0.44125900  1
  H  2812  1  0.73551700  0.36596700  0.44289300  1
  H  2814  1  0.64367500  0.39647300  0.38801900  1
  H  2815  1  0.59175300  0.40522500  0.37921200  1
  H  2816  1  0.64199700  0.41843600  0.38214900  1
  H  2827  1  0.86334300  0.44681800  0.61987700  1
  H  2836  1  0.78481500  0.41542800  0.57637400  1
  H  2837  1  0.81415400  0.43789300  0.59471100  1
  H  2838  1  0.78292000  0.38413300  0.56817100  1
  H  2840  1  0.97666100  0.41643100  0.65481200  1
  H  2841  1  0.94246700  0.39749400  0.65697500  1
  H  2842  1  0.98547100  0.39914400  0.64055900  1
  H  2844  1  0.89373000  0.34421900  0.61012000  1
  H  2845  1  0.84180500  0.33539300  0.60138900  1
  H  2846  1  0.89202000  0.33832500  0.58816300  1
  H  2857  1  0.36380000  0.51598900  0.43056700  1
  H  2866  1  0.28535800  0.54737100  0.47409000  1
  H  2867  1  0.31478100  0.52490200  0.45577600  1
  H  2868  1  0.28321200  0.57868000  0.48222200  1
  H  2870  1  0.47650500  0.54644600  0.39542000  1
  H  2871  1  0.44208700  0.56532700  0.39325100  1
  H  2872  1  0.48526200  0.56378100  0.40961600  1
  H  2874  1  0.39337800  0.61865300  0.44009700  1
  H  2875  1  0.34137300  0.62742500  0.44882000  1
  H  2876  1  0.39163700  0.62459000  0.46204300  1
  C  1  1  0.27462200  0.08460300  0.99280400  1
  C  2  1  0.30919800  0.07189700  0.99555000  1
  C  3  1  0.35191200  0.07194600  0.98637500  1
  C  4  1  0.36003800  0.08531600  0.97431700  1
  C  5  1  0.32645700  0.09849700  0.97157400  1
  C  6  1  0.28324300  0.09776600  0.98056500  1
  C  9  1  0.23151700  0.08370900  0.00198600  1
  C  10  1  0.20186500  0.06908900  0.00088300  1
  C  11  1  0.15986600  0.06835600  0.01057300  1
  C  12  1  0.14770900  0.08231100  0.02145200  1
  C  13  1  0.17712000  0.09694000  0.02282700  1
  C  14  1  0.21829700  0.09754200  0.01275600  1
  C  31  1  0.77459700  0.41425400  0.00606100  1
  C  32  1  0.80920500  0.42694900  0.00332300  1
  C  33  1  0.85187900  0.42689700  0.01252500  1
  C  34  1  0.85994200  0.41352800  0.02459000  1
  C  35  1  0.82633700  0.40035100  0.02731600  1
  C  36  1  0.78315500  0.40109100  0.01830600  1
  C  39  1  0.73153100  0.41514700  0.99685300  1
  C  40  1  0.70187000  0.42976600  0.99793900  1
  C  41  1  0.65988200  0.43048600  0.98824100  1
  C  42  1  0.64773400  0.41651900  0.97737700  1
  C  43  1  0.67715800  0.40189200  0.97601800  1
  C  44  1  0.71833600  0.40130500  0.98609000  1
  C  61  1  0.52454600  0.25606800  0.83459700  1
  C  62  1  0.55913200  0.25331300  0.82189700  1
  C  63  1  0.60182700  0.26250100  0.82193600  1
  C  64  1  0.60994300  0.27456700  0.83530100  1
  C  65  1  0.57636200  0.27730600  0.84848300  1
  C  66  1  0.53315900  0.26830900  0.84775900  1
  C  69  1  0.48145100  0.24687600  0.83370900  1
  C  70  1  0.45176900  0.24797900  0.81909800  1
  C  71  1  0.40978500  0.23828100  0.81837400  1
  C  72  1  0.39765800  0.22740300  0.83233300  1
  C  73  1  0.42709900  0.22602900  0.84695400  1
  C  74  1  0.46827000  0.23610200  0.84754500  1
  C  91  1  0.02454300  0.24276700  0.16426200  1
  C  92  1  0.05916000  0.24553500  0.17694700  1
  C  93  1  0.10184900  0.23634200  0.17690300  1
  C  94  1  0.10994400  0.22427200  0.16354000  1
  C  95  1  0.07633000  0.22152000  0.15037100  1
  C  96  1  0.03311600  0.23051000  0.15111200  1
  C  99  1  0.98146000  0.25196300  0.16514700  1
  C  100  1  0.95179500  0.25088200  0.17976500  1
  C  101  1  0.90979000  0.26057000  0.18047500  1
  C  102  1  0.89763200  0.27142200  0.16649900  1
  C  103  1  0.92706600  0.27277900  0.15187300  1
  C  104  1  0.96824800  0.26271100  0.15129500  1
  C  121  1  0.72430800  0.91446300  0.00631200  1
  C  122  1  0.68946600  0.92711400  0.00376000  1
  C  123  1  0.64710400  0.92692300  0.01313900  1
  C  124  1  0.63961100  0.91353200  0.02522600  1
  C  125  1  0.67351100  0.90043100  0.02779300  1
  C  126  1  0.71636400  0.90126900  0.01858500  1
  C  129  1  0.76692600  0.91536500  0.99683900  1
  C  130  1  0.79673800  0.92994700  0.99782000  1
  C  131  1  0.83839300  0.93060600  0.98795200  1
  C  132  1  0.85024300  0.91661500  0.97708200  1
  C  133  1  0.82066200  0.90202400  0.97582300  1
  C  134  1  0.77968700  0.90151000  0.98601200  1
  C  151  1  0.22433400  0.58437600  0.99249900  1
  C  152  1  0.18945000  0.57174000  0.99505100  1
  C  153  1  0.14712600  0.57193200  0.98564800  1
  C  154  1  0.13970000  0.58531500  0.97354700  1
  C  155  1  0.17363200  0.59840700  0.97098600  1
  C  156  1  0.21646000  0.59756100  0.98021100  1
  C  159  1  0.26691500  0.58347800  0.00199700  1
  C  160  1  0.29672000  0.56889400  0.00104500  1
  C  161  1  0.33836200  0.56824800  0.01092300  1
  C  162  1  0.35021200  0.58225900  0.02176700  1
  C  163  1  0.32063200  0.59685100  0.02299800  1
  C  164  1  0.27966200  0.59735000  0.01280600  1
  C  181  1  0.47411600  0.74265600  0.16421400  1
  C  182  1  0.43954100  0.74543800  0.17691200  1
  C  183  1  0.39680700  0.73627300  0.17688100  1
  C  184  1  0.38863500  0.72420900  0.16352000  1
  C  185  1  0.42220200  0.72144500  0.15033700  1
  C  186  1  0.46544400  0.73041600  0.15105800  1
  C  189  1  0.51726000  0.75181900  0.16510700  1
  C  190  1  0.54687900  0.75072200  0.17973700  1
  C  191  1  0.58889100  0.76040300  0.18047400  1
  C  192  1  0.60113400  0.77124800  0.16650400  1
  C  193  1  0.57177000  0.77261000  0.15186000  1
  C  194  1  0.53054900  0.76256400  0.15126300  1
  C  211  1  0.97411100  0.75619700  0.83461400  1
  C  212  1  0.93950000  0.75339400  0.82193300  1
  C  213  1  0.89676700  0.76255500  0.82197300  1
  C  214  1  0.88860200  0.77462500  0.83532900  1
  C  215  1  0.92220400  0.77741000  0.84849700  1
  C  216  1  0.96547000  0.76845300  0.84775900  1
  C  219  1  0.01726200  0.74704000  0.83372100  1
  C  220  1  0.04686400  0.74813100  0.81908600  1
  C  221  1  0.08891600  0.73847200  0.81835800  1
  C  222  1  0.10119800  0.72764800  0.83234000  1
  C  223  1  0.07184400  0.72628600  0.84698400  1
  C  224  1  0.03059500  0.73631600  0.84757600  1
  C  241  1  0.77472000  0.58462300  0.49265800  1
  C  242  1  0.80928900  0.57192200  0.49543500  1
  C  243  1  0.85205000  0.57196900  0.48629200  1
  C  244  1  0.86024300  0.58533600  0.47423600  1
  C  245  1  0.82667600  0.59851700  0.47146600  1
  C  246  1  0.78341000  0.59778500  0.48042300  1
  C  249  1  0.73155900  0.58372500  0.50180800  1
  C  250  1  0.70196800  0.56908800  0.50071200  1
  C  251  1  0.65994100  0.56834200  0.51038600  1
  C  252  1  0.64767800  0.58230900  0.52123100  1
  C  253  1  0.67701400  0.59695900  0.52259600  1
  C  254  1  0.71823800  0.59756700  0.51255100  1
  C  271  1  0.27470200  0.91423000  0.50620100  1
  C  272  1  0.30928800  0.92692500  0.50342200  1
  C  273  1  0.35202100  0.92688600  0.51258500  1
  C  274  1  0.36018200  0.91352300  0.52464900  1
  C  275  1  0.32660900  0.90034400  0.52741400  1
  C  276  1  0.28335900  0.90107400  0.51844500  1
  C  279  1  0.23156600  0.91512000  0.49703400  1
  C  280  1  0.20195700  0.92975500  0.49811800  1
  C  281  1  0.15993500  0.93048300  0.48844200  1
  C  282  1  0.14767800  0.91650300  0.47761200  1
  C  283  1  0.17703300  0.90185700  0.47626100  1
  C  284  1  0.21826700  0.90126800  0.48630100  1
  C  301  1  0.02447200  0.75634900  0.33437600  1
  C  302  1  0.05931900  0.75379200  0.32172800  1
  C  303  1  0.10165900  0.76318700  0.32190700  1
  C  304  1  0.10914100  0.77528100  0.33529300  1
  C  305  1  0.07524700  0.77784400  0.34839600  1
  C  306  1  0.03240800  0.76862500  0.34756800  1
  C  309  1  0.98187000  0.74686500  0.33348600  1
  C  310  1  0.95201900  0.74784300  0.31891500  1
  C  311  1  0.91037500  0.73796700  0.31826800  1
  C  312  1  0.89856000  0.72710200  0.33226700  1
  C  313  1  0.92817900  0.72584800  0.34684700  1
  C  314  1  0.96915100  0.73603700  0.34734600  1
  C  331  1  0.52447200  0.74248100  0.66447600  1
  C  332  1  0.55932800  0.74504800  0.67711900  1
  C  333  1  0.60166200  0.73565000  0.67694200  1
  C  334  1  0.60914400  0.72355400  0.66355900  1
  C  335  1  0.57524100  0.72098300  0.65045800  1
  C  336  1  0.53239200  0.73019300  0.65129500  1
  C  339  1  0.48187200  0.75196900  0.66536000  1
  C  340  1  0.45201700  0.75100100  0.67993000  1
  C  341  1  0.41034900  0.76086700  0.68055800  1
  C  342  1  0.39852300  0.77171100  0.66654400  1
  C  343  1  0.42816000  0.77295900  0.65196600  1
  C  344  1  0.46914900  0.76277800  0.65148600  1
  C  361  1  0.22419200  0.41443100  0.50645600  1
  C  362  1  0.18937100  0.42708700  0.50387500  1
  C  363  1  0.14695700  0.42690100  0.51322100  1
  C  364  1  0.13938200  0.41351300  0.52530300  1
  C  365  1  0.17325400  0.40040600  0.52789700  1
  C  366  1  0.21616100  0.40123800  0.51872200  1
  C  369  1  0.26687600  0.41533500  0.49702000  1
  C  370  1  0.29665600  0.42992600  0.49801600  1
  C  371  1  0.33835200  0.43059600  0.48817100  1
  C  372  1  0.35030100  0.41659800  0.47732500  1
  C  373  1  0.32076500  0.40199500  0.47605700  1
  C  374  1  0.27972500  0.40147600  0.48621000  1
  C  391  1  0.72422800  0.08439900  0.49236800  1
  C  392  1  0.68936500  0.07176100  0.49495200  1
  C  393  1  0.64698800  0.07194500  0.48558100  1
  C  394  1  0.63947500  0.08532600  0.47348500  1
  C  395  1  0.67337800  0.09842300  0.47089500  1
  C  396  1  0.71626200  0.09758300  0.48008500  1
  C  399  1  0.76687400  0.08350000  0.50183000  1
  C  400  1  0.79662300  0.06889700  0.50088000  1
  C  401  1  0.83829500  0.06824100  0.51073800  1
  C  402  1  0.85026400  0.08226300  0.52154900  1
  C  403  1  0.82075700  0.09687700  0.52277100  1
  C  404  1  0.77972900  0.09738000  0.51261100  1
  C  421  1  0.97419900  0.24237600  0.66443600  1
  C  422  1  0.93935700  0.24495900  0.67708400  1
  C  423  1  0.89697700  0.23559100  0.67690800  1
  C  424  1  0.88943900  0.22350000  0.66352500  1
  C  425  1  0.92331800  0.22091200  0.65042000  1
  C  426  1  0.96620200  0.23010200  0.65124700  1
  C  429  1  0.01685900  0.25182800  0.66533600  1
  C  430  1  0.04664100  0.25084900  0.67992800  1
  C  431  1  0.08831700  0.26070400  0.68059100  1
  C  432  1  0.10025600  0.27154100  0.66658600  1
  C  433  1  0.07072000  0.27279000  0.65198200  1
  C  434  1  0.02969100  0.26263200  0.65147000  1
  C  451  1  0.47416500  0.25647100  0.33440000  1
  C  452  1  0.43929500  0.25387000  0.32176900  1
  C  453  1  0.39692300  0.26324200  0.32194400  1
  C  454  1  0.38940200  0.27534400  0.33532000  1
  C  455  1  0.42330900  0.27794800  0.34841100  1
  C  456  1  0.46620700  0.26876700  0.34757200  1
  C  459  1  0.51682600  0.24701800  0.33350300  1
  C  460  1  0.54657100  0.24796900  0.31890100  1
  C  461  1  0.58826400  0.23812100  0.31825000  1
  C  462  1  0.60024700  0.22731800  0.33227600  1
  C  463  1  0.57073700  0.22609200  0.34688900  1
  C  464  1  0.52969800  0.23624600  0.34738900  1
  C  481  1  0.08038800  0.03348600  0.99622100  1
  C  482  1  0.09312500  0.01738600  0.00364600  1
  C  484  1  0.01602200  0.00608500  0.99844300  1
  C  485  1  0.00173400  0.02174500  0.99064300  1
  C  486  1  0.03445300  0.03532100  0.98960100  1
  C  488  1  0.98444400  0.99216700  0.99972400  1
  C  489  1  0.92307200  0.96383000  0.00211800  1
  C  491  1  0.96954700  0.96302300  0.00868600  1
  C  492  1  0.90811200  0.97945200  0.99445200  1
  C  493  1  0.93830900  0.99377200  0.99317300  1
  C  494  1  0.92415500  0.00942400  0.98549800  1
  C  495  1  0.95562000  0.02331700  0.98426200  1
  C  499  1  0.14022400  0.01260900  0.01009500  1
  C  503  1  0.99072100  0.94746100  0.01651800  1
  C  507  1  0.89167000  0.94962300  0.00256700  1
  C  508  1  0.11107400  0.04784800  0.99562200  1
  C  511  1  0.58029200  0.46532300  0.00260500  1
  C  512  1  0.59309100  0.48143800  0.99522500  1
  C  514  1  0.51600600  0.49275500  0.00043600  1
  C  515  1  0.50166900  0.47708300  0.00820100  1
  C  516  1  0.53435000  0.46349300  0.00922300  1
  C  518  1  0.48446000  0.50668400  0.99917500  1
  C  519  1  0.42313000  0.53503700  0.99680100  1
  C  521  1  0.46963300  0.53584800  0.99026000  1
  C  522  1  0.40813100  0.51940700  0.00444000  1
  C  523  1  0.43830800  0.50507900  0.00570800  1
  C  524  1  0.42410400  0.48941600  0.01335100  1
  C  525  1  0.45554100  0.47551300  0.01457000  1
  C  529  1  0.64019600  0.48620600  0.98878000  1
  C  533  1  0.49083500  0.55141600  0.98245000  1
  C  537  1  0.39173100  0.54924400  0.99634200  1
  C  538  1  0.61091000  0.45094400  0.00318200  1
  C  541  1  0.33024300  0.25261700  0.78351500  1
  C  542  1  0.34302700  0.24520300  0.76741400  1
  C  544  1  0.26590900  0.25036600  0.75610500  1
  C  545  1  0.25158000  0.25815900  0.77176400  1
  C  546  1  0.28428800  0.25922200  0.78534200  1
  C  548  1  0.23433600  0.24905800  0.74218800  1
  C  549  1  0.17296100  0.24659500  0.71385600  1
  C  551  1  0.21947600  0.24006600  0.71305100  1
  C  552  1  0.15796700  0.25426200  0.72947400  1
  C  553  1  0.18816600  0.25557500  0.74379000  1
  C  554  1  0.17397700  0.26324900  0.75944000  1
  C  555  1  0.20543600  0.26451200  0.77333100  1
  C  559  1  0.39015500  0.23878100  0.76264200  1
  C  563  1  0.24069100  0.23224500  0.69748900  1
  C  567  1  0.14155500  0.24610500  0.69965500  1
  C  568  1  0.36090400  0.25322900  0.79788400  1
  C  571  1  0.83020700  0.24624700  0.21532400  1
  C  572  1  0.84297800  0.25365900  0.23142700  1
  C  574  1  0.76588300  0.24846500  0.24273800  1
  C  575  1  0.75157000  0.24066900  0.22707900  1
  C  576  1  0.78427900  0.23961600  0.21350000  1
  C  578  1  0.73430900  0.24975700  0.25665600  1
  C  579  1  0.67292600  0.25219800  0.28498900  1
  C  581  1  0.71943200  0.25873900  0.28579700  1
  C  582  1  0.65795200  0.24452600  0.26937100  1
  C  583  1  0.68815600  0.24322400  0.25505500  1
  C  584  1  0.67398100  0.23555100  0.23940300  1
  C  585  1  0.70544200  0.23430100  0.22551100  1
  C  589  1  0.89009400  0.26009600  0.23620000  1
  C  593  1  0.74062400  0.26656300  0.30136000  1
  C  597  1  0.64151300  0.25268400  0.29918900  1
  C  598  1  0.86085300  0.24564300  0.20095200  1
  C  601  1  0.92318800  0.46384500  0.99688900  1
  C  602  1  0.91213300  0.47857500  0.00703400  1
  C  604  1  0.98364600  0.49247800  0.99844900  1
  C  605  1  0.99588800  0.47829100  0.98784800  1
  C  606  1  0.96514400  0.46407100  0.98717800  1
  C  608  1  0.01335200  0.50696700  0.99949400  1
  C  609  1  0.07092500  0.53640000  0.00155000  1
  C  611  1  0.02864000  0.53513000  0.01115400  1
  C  612  1  0.08382800  0.52226300  0.99102600  1
  C  613  1  0.05551900  0.50742300  0.98986900  1
  C  614  1  0.06770300  0.49323700  0.97939100  1
  C  615  1  0.03814600  0.47876800  0.97841200  1
  C  619  1  0.86841500  0.48127700  0.01697100  1
  C  623  1  0.01000300  0.54901100  0.02230700  1
  C  627  1  0.10029300  0.55119700  0.00179500  1
  C  628  1  0.89454900  0.44890900  0.99648400  1
  C  631  1  0.42311600  0.03498600  0.00201700  1
  C  632  1  0.41206800  0.02026200  0.99186300  1
  C  634  1  0.48362300  0.00637300  0.00041700  1
  C  635  1  0.49584800  0.02054900  0.01103400  1
  C  636  1  0.46507600  0.03476000  0.01172600  1
  C  638  1  0.51336500  0.99189600  0.99934700  1
  C  639  1  0.57099200  0.96248100  0.99724800  1
  C  641  1  0.52869300  0.96375000  0.98765200  1
  C  642  1  0.58388200  0.97660900  0.00778600  1
  C  643  1  0.55554500  0.99144200  0.00896600  1
  C  644  1  0.56771000  0.00561600  0.01945900  1
  C  645  1  0.53811900  0.02007400  0.02046300  1
  C  649  1  0.36836500  0.01756800  0.98191700  1
  C  653  1  0.51010000  0.94988400  0.97647400  1
  C  657  1  0.60037000  0.94768800  0.99699300  1
  C  658  1  0.39446000  0.04991900  0.00243200  1
  C  661  1  0.67302800  0.24685200  0.78497200  1
  C  662  1  0.66201500  0.25700300  0.77024400  1
  C  664  1  0.73355200  0.24841700  0.75636000  1
  C  665  1  0.74575600  0.23781100  0.77054700  1
  C  666  1  0.71497700  0.23713400  0.78475600  1
  C  668  1  0.76329400  0.24946600  0.74188200  1
  C  669  1  0.82092100  0.25152300  0.71246300  1
  C  671  1  0.77864300  0.26113300  0.71372500  1
  C  672  1  0.83379800  0.24099900  0.72660300  1
  C  673  1  0.80546000  0.23983900  0.74143600  1
  C  674  1  0.81760400  0.22935500  0.75562100  1
  C  675  1  0.78801300  0.22837100  0.77008000  1
  C  679  1  0.61831100  0.26694800  0.76753400  1
  C  683  1  0.76004300  0.27229000  0.69984200  1
  C  687  1  0.85029900  0.25175800  0.69767000  1
  C  688  1  0.64433700  0.24644600  0.79989700  1
  C  691  1  0.17312100  0.25200300  0.21384000  1
  C  692  1  0.16206200  0.24185700  0.22856900  1
  C  694  1  0.23357600  0.25043300  0.24247200  1
  C  695  1  0.24581300  0.26104300  0.22829200  1
  C  696  1  0.21505800  0.26172600  0.21407500  1
  C  698  1  0.26329400  0.24937600  0.25695800  1
  C  699  1  0.32087100  0.24730600  0.28638800  1
  C  701  1  0.27859000  0.23770100  0.28511500  1
  C  702  1  0.33377500  0.25783500  0.27225500  1
  C  703  1  0.30546400  0.25900000  0.25741400  1
  C  704  1  0.31764200  0.26948600  0.24323600  1
  C  705  1  0.28807500  0.27047700  0.22877000  1
  C  709  1  0.11833900  0.23192100  0.23126700  1
  C  713  1  0.25996300  0.22654100  0.29899000  1
  C  717  1  0.35021700  0.24706900  0.30119000  1
  C  718  1  0.14449700  0.25241000  0.19890000  1
  C  721  1  0.66835900  0.74609700  0.21537500  1
  C  722  1  0.65560200  0.75353300  0.23146800  1
  C  724  1  0.73271500  0.74836100  0.24278000  1
  C  725  1  0.74702400  0.74055300  0.22712600  1
  C  726  1  0.71431100  0.73948800  0.21354900  1
  C  728  1  0.76428500  0.74966400  0.25669600  1
  C  729  1  0.82565400  0.75210300  0.28503400  1
  C  731  1  0.77915800  0.75865300  0.28583400  1
  C  732  1  0.84063500  0.74443100  0.26941700  1
  C  733  1  0.81043800  0.74312800  0.25509900  1
  C  734  1  0.82461700  0.73544800  0.23945100  1
  C  735  1  0.79315500  0.73418800  0.22556000  1
  C  739  1  0.60848900  0.75997500  0.23623500  1
  C  743  1  0.75795900  0.76648500  0.30139200  1
  C  747  1  0.85705600  0.75257700  0.29923900  1
  C  748  1  0.63770200  0.74548100  0.20100900  1
  C  751  1  0.16828100  0.75277600  0.78343400  1
  C  752  1  0.15553800  0.74533100  0.76734300  1
  C  754  1  0.23265600  0.75050400  0.75603800  1
  C  755  1  0.24694600  0.75832400  0.77168800  1
  C  756  1  0.21422100  0.75939600  0.78526000  1
  C  758  1  0.26424100  0.74919500  0.74212500  1
  C  759  1  0.32563200  0.74674400  0.71379700  1
  C  761  1  0.27913900  0.74019100  0.71299400  1
  C  762  1  0.34059100  0.75443100  0.72940800  1
  C  763  1  0.31038500  0.75573900  0.74372300  1
  C  764  1  0.32454200  0.76343300  0.75936500  1
  C  765  1  0.29306900  0.76469900  0.77325400  1
  C  769  1  0.10845500  0.73885400  0.76258700  1
  C  773  1  0.25797600  0.73233100  0.69744300  1
  C  777  1  0.35704400  0.74626300  0.69959700  1
  C  778  1  0.13759200  0.75340300  0.79779400  1
  C  781  1  0.32570500  0.75195000  0.21385600  1
  C  782  1  0.33672300  0.74180100  0.22858600  1
  C  784  1  0.26519600  0.75039000  0.24247200  1
  C  785  1  0.25298500  0.76099400  0.22828400  1
  C  786  1  0.28375900  0.76166800  0.21407400  1
  C  788  1  0.23545400  0.74934100  0.25695100  1
  C  789  1  0.17782100  0.74728100  0.28636900  1
  C  791  1  0.22010500  0.73767500  0.28510800  1
  C  792  1  0.16494300  0.75780500  0.27222900  1
  C  793  1  0.19328500  0.75896600  0.25739600  1
  C  794  1  0.18113500  0.76944700  0.24321000  1
  C  795  1  0.21072700  0.77043300  0.22875200  1
  C  799  1  0.38042100  0.73185000  0.23129200  1
  C  803  1  0.23871200  0.72651800  0.29899000  1
  C  807  1  0.14842900  0.74703700  0.30115900  1
  C  808  1  0.35437800  0.75234600  0.19892800  1
  C  811  1  0.82560500  0.74685400  0.78502400  1
  C  812  1  0.83665600  0.75700200  0.77029700  1
  C  814  1  0.76515000  0.74841800  0.75639300  1
  C  815  1  0.75291900  0.73780600  0.77057400  1
  C  816  1  0.78367700  0.73712700  0.78479100  1
  C  818  1  0.73542200  0.74947300  0.74190900  1
  C  819  1  0.67782000  0.75155000  0.71248600  1
  C  821  1  0.72010500  0.76115400  0.71375700  1
  C  822  1  0.66492600  0.74101800  0.72661800  1
  C  823  1  0.69325300  0.73984800  0.74145500  1
  C  824  1  0.68108400  0.72936200  0.75563500  1
  C  825  1  0.71066100  0.72837100  0.77009700  1
  C  829  1  0.88036300  0.76694700  0.76760100  1
  C  833  1  0.73872200  0.77231700  0.69988100  1
  C  837  1  0.64844500  0.75179900  0.69769100  1
  C  838  1  0.85421500  0.74646100  0.79996800  1
  C  841  1  0.58051300  0.53342800  0.49611400  1
  C  842  1  0.59321400  0.51734400  0.50358400  1
  C  844  1  0.51605100  0.50606400  0.49844900  1
  C  845  1  0.50179500  0.52170900  0.49061000  1
  C  846  1  0.53456000  0.53526700  0.48951000  1
  C  848  1  0.48442500  0.49216800  0.49978900  1
  C  849  1  0.42294800  0.46387000  0.50230200  1
  C  851  1  0.46945100  0.46305800  0.50884400  1
  C  852  1  0.40802300  0.47947600  0.49459600  1
  C  853  1  0.43826900  0.49377600  0.49325700  1
  C  854  1  0.42414600  0.50941400  0.48554400  1
  C  855  1  0.45566000  0.52328700  0.48424900  1
  C  859  1  0.64032200  0.51256400  0.51002200  1
  C  863  1  0.49060400  0.44750400  0.51670300  1
  C  867  1  0.39151800  0.44967400  0.50279000  1
  C  868  1  0.61123600  0.54777700  0.49547200  1
  C  871  1  0.08040500  0.96536300  0.50273900  1
  C  872  1  0.09317300  0.98146600  0.49532400  1
  C  874  1  0.01603300  0.99276000  0.50047200  1
  C  875  1  0.00172300  0.97710100  0.50826900  1
  C  876  1  0.03444900  0.96353000  0.50934000  1
  C  878  1  0.98444100  0.00667000  0.49915900  1
  C  879  1  0.92301600  0.03498800  0.49668500  1
  C  881  1  0.96954400  0.03580600  0.49016700  1
  C  882  1  0.90804600  0.01936900  0.50435500  1
  C  883  1  0.93826700  0.00505900  0.50567300  1
  C  884  1  0.92409500  0.98941000  0.51334800  1
  C  885  1  0.95557500  0.97552500  0.51461700  1
  C  889  1  0.14028200  0.98623300  0.48888000  1
  C  893  1  0.99072100  0.05136800  0.48233500  1
  C  897  1  0.89158600  0.04918400  0.49618700  1
  C  898  1  0.11105600  0.95099300  0.50335200  1
  C  901  1  0.42317200  0.96384200  0.49689700  1
  C  902  1  0.41213200  0.97857300  0.50704300  1
  C  904  1  0.48362300  0.99247500  0.49844100  1
  C  905  1  0.49585500  0.97828800  0.48783900  1
  C  906  1  0.46510700  0.96406800  0.48717400  1
  C  908  1  0.51333300  0.00696400  0.49948000  1
  C  909  1  0.57090500  0.03639900  0.50152000  1
  C  911  1  0.52863700  0.03513000  0.51113400  1
  C  912  1  0.58380200  0.02226000  0.49099800  1
  C  913  1  0.55549300  0.00741800  0.48984800  1
  C  914  1  0.56766100  0.99323300  0.47936900  1
  C  915  1  0.53809800  0.97876500  0.47839300  1
  C  919  1  0.36843100  0.98127200  0.51699300  1
  C  923  1  0.51001300  0.04901200  0.52228700  1
  C  927  1  0.60026500  0.05119800  0.50175300  1
  C  928  1  0.39453000  0.94890400  0.49650200  1
  C  931  1  0.92318500  0.53501000  0.50198400  1
  C  932  1  0.91215800  0.52028900  0.49182400  1
  C  934  1  0.98364900  0.50638300  0.50041800  1
  C  935  1  0.99585600  0.52055700  0.51104100  1
  C  936  1  0.96509500  0.53477200  0.51172100  1
  C  938  1  0.01337800  0.49190000  0.49936100  1
  C  939  1  0.07097800  0.46247700  0.49728700  1
  C  941  1  0.02871800  0.46375400  0.48766900  1
  C  942  1  0.08385000  0.47660200  0.50783000  1
  C  943  1  0.05552700  0.49143900  0.50899700  1
  C  944  1  0.06767200  0.50561200  0.51949700  1
  C  945  1  0.03809500  0.52007500  0.52048900  1
  C  949  1  0.86846400  0.51759700  0.48186600  1
  C  953  1  0.01012400  0.44988400  0.47649300  1
  C  957  1  0.10033200  0.44767700  0.49704700  1
  C  958  1  0.89457000  0.54995400  0.50237900  1
  C  961  1  0.34253500  0.14015400  0.94867900  1
  C  962  1  0.32679700  0.13875900  0.93132500  1
  C  964  1  0.37565700  0.16248400  0.92277200  1
  C  965  1  0.39123400  0.16487000  0.93994900  1
  C  966  1  0.37424200  0.15358800  0.95275800  1
  C  968  1  0.39264600  0.17317900  0.90947700  1
  C  969  1  0.42577800  0.19403500  0.88252200  1
  C  971  1  0.39341600  0.18049000  0.87939500  1
  C  972  1  0.44181400  0.19672400  0.89954200  1
  C  973  1  0.42533000  0.18642200  0.91324100  1
  C  974  1  0.44040600  0.18885300  0.93039900  1
  C  975  1  0.42356800  0.17813400  0.94364300  1
  C  979  1  0.29090200  0.12658900  0.92483500  1
  C  983  1  0.37615800  0.17571100  0.86204300  1
  C  987  1  0.44301900  0.20479100  0.86927300  1
  C  988  1  0.32991400  0.12819600  0.96175300  1
  C  991  1  0.84234800  0.35868400  0.05017900  1
  C  992  1  0.82659200  0.36004900  0.06753300  1
  C  994  1  0.87550100  0.33633000  0.07605900  1
  C  995  1  0.89108200  0.33396700  0.05888100  1
  C  996  1  0.87406900  0.34525700  0.04608300  1
  C  998  1  0.89251100  0.32562200  0.08934200  1
  C  999  1  0.92565100  0.30473100  0.11626900  1
  C  1001  1  0.89329500  0.31827300  0.11941600  1
  C  1002  1  0.94169700  0.30206900  0.09924600  1
  C  1003  1  0.92520900  0.31238700  0.08556000  1
  C  1004  1  0.94029200  0.30998200  0.06840100  1
  C  1005  1  0.92344000  0.32071500  0.05517000  1
  C  1009  1  0.79071700  0.37221700  0.07404100  1
  C  1013  1  0.87602000  0.32302500  0.13677200  1
  C  1017  1  0.94293300  0.29396200  0.12950200  1
  C  1018  1  0.82967800  0.37065200  0.03711700  1
  C  1021  1  0.59254100  0.30015900  0.89014600  1
  C  1022  1  0.57674400  0.31750600  0.88877600  1
  C  1024  1  0.62564600  0.32605600  0.91249000  1
  C  1025  1  0.64126800  0.30888300  0.91485700  1
  C  1026  1  0.62426900  0.29607400  0.90357300  1
  C  1028  1  0.64263800  0.33934800  0.92318900  1
  C  1029  1  0.67577000  0.36629500  0.94405500  1
  C  1031  1  0.64337000  0.36942500  0.93052300  1
  C  1032  1  0.69183400  0.34927600  0.94672800  1
  C  1033  1  0.67536100  0.33558100  0.93641900  1
  C  1034  1  0.69048600  0.31842800  0.93883000  1
  C  1035  1  0.67364800  0.30518600  0.92810600  1
  C  1039  1  0.54079100  0.32399600  0.87662700  1
  C  1043  1  0.62608000  0.38677600  0.92575600  1
  C  1047  1  0.69303900  0.37954200  0.95481000  1
  C  1048  1  0.57991400  0.28708400  0.87818800  1
  C  1051  1  0.09234900  0.19861200  0.10872600  1
  C  1052  1  0.07671500  0.18124800  0.11014300  1
  C  1054  1  0.12547100  0.17271900  0.08638200  1
  C  1055  1  0.14089900  0.18990900  0.08396200  1
  C  1056  1  0.12387700  0.20271600  0.09524100  1
  C  1058  1  0.14249700  0.15943000  0.07568600  1
  C  1059  1  0.17572200  0.13248900  0.05483400  1
  C  1061  1  0.14345800  0.12934100  0.06840500  1
  C  1062  1  0.19160400  0.14952300  0.05211200  1
  C  1063  1  0.17507300  0.16321600  0.06241200  1
  C  1064  1  0.19000300  0.18038500  0.05995000  1
  C  1065  1  0.17312600  0.19362200  0.07066800  1
  C  1069  1  0.04093900  0.17473600  0.12234900  1
  C  1073  1  0.12635200  0.11197500  0.07320800  1
  C  1077  1  0.19299600  0.11924500  0.04407900  1
  C  1078  1  0.07971000  0.21169500  0.12067400  1
  C  1081  1  0.65783600  0.85863700  0.05045100  1
  C  1082  1  0.67352200  0.85992100  0.06781900  1
  C  1084  1  0.62433600  0.83624000  0.07623400  1
  C  1085  1  0.60882900  0.83395000  0.05903700  1
  C  1086  1  0.62600000  0.84526700  0.04629000  1
  C  1088  1  0.60711600  0.82552400  0.08947300  1
  C  1089  1  0.57353500  0.80462800  0.11632100  1
  C  1091  1  0.60600900  0.81811700  0.11953000  1
  C  1092  1  0.55759800  0.80202200  0.09927500  1
  C  1093  1  0.57429900  0.81234700  0.08562900  1
  C  1094  1  0.55931400  0.81000600  0.06844900  1
  C  1095  1  0.57635500  0.82075400  0.05526200  1
  C  1099  1  0.70953700  0.87200400  0.07438400  1
  C  1103  1  0.62315200  0.82282700  0.13691700  1
  C  1107  1  0.55610200  0.79384700  0.12951800  1
  C  1108  1  0.67050600  0.87067500  0.03745500  1
  C  1111  1  0.15804600  0.64020700  0.94834900  1
  C  1112  1  0.17374100  0.63894900  0.93098000  1
  C  1114  1  0.12452500  0.66263100  0.92259100  1
  C  1115  1  0.10902300  0.66490000  0.93979300  1
  C  1116  1  0.12621400  0.65357300  0.95252600  1
  C  1118  1  0.10729700  0.67336100  0.90936600  1
  C  1119  1  0.07371200  0.69429400  0.88254700  1
  C  1121  1  0.10617200  0.68080500  0.87931800  1
  C  1122  1  0.05777700  0.69687600  0.89959600  1
  C  1123  1  0.07448200  0.68653300  0.91322800  1
  C  1124  1  0.05949300  0.68885100  0.93041000  1
  C  1125  1  0.07654400  0.67809000  0.94358400  1
  C  1129  1  0.20970800  0.62685800  0.92439500  1
  C  1133  1  0.12332700  0.67612400  0.86192600  1
  C  1137  1  0.05623800  0.70508900  0.86936900  1
  C  1138  1  0.17076200  0.62816000  0.96133500  1
  C  1141  1  0.40575300  0.69858500  0.10869000  1
  C  1142  1  0.42130500  0.68120800  0.11007800  1
  C  1144  1  0.37222800  0.67272300  0.08639000  1
  C  1145  1  0.35686800  0.68992300  0.08399800  1
  C  1146  1  0.37406700  0.70271300  0.09526300  1
  C  1148  1  0.35504000  0.65945100  0.07570800  1
  C  1149  1  0.32163100  0.63254500  0.05484800  1
  C  1151  1  0.35391600  0.62936800  0.06840800  1
  C  1152  1  0.30579000  0.64958800  0.05215500  1
  C  1153  1  0.32240300  0.66326400  0.06246300  1
  C  1154  1  0.30753400  0.68044400  0.06002900  1
  C  1155  1  0.32454700  0.69366500  0.07074200  1
  C  1159  1  0.45720500  0.67466800  0.12222000  1
  C  1163  1  0.37096000  0.61199300  0.07321100  1
  C  1167  1  0.30439700  0.61932400  0.04404900  1
  C  1168  1  0.41857000  0.71164800  0.12063600  1
  C  1171  1  0.90593300  0.80034100  0.89011700  1
  C  1172  1  0.92130400  0.81773500  0.88867200  1
  C  1174  1  0.87238700  0.82620800  0.91240900  1
  C  1175  1  0.85723500  0.80899000  0.91486400  1
  C  1176  1  0.87445800  0.79619800  0.90360900  1
  C  1178  1  0.85516100  0.83948100  0.92308000  1
  C  1179  1  0.82165000  0.86638800  0.94391500  1
  C  1181  1  0.85379100  0.86957900  0.93031400  1
  C  1182  1  0.80601000  0.84933000  0.94666900  1
  C  1183  1  0.82268300  0.83565400  0.93637500  1
  C  1184  1  0.80802400  0.81845800  0.93887100  1
  C  1185  1  0.82508300  0.80523500  0.92817100  1
  C  1189  1  0.95700700  0.82429800  0.87646400  1
  C  1193  1  0.87064000  0.88696700  0.92546700  1
  C  1197  1  0.80442300  0.87961000  0.95471100  1
  C  1198  1  0.91875700  0.78726500  0.87818800  1
  C  1201  1  0.84304500  0.64015700  0.44856800  1
  C  1202  1  0.82755900  0.63874700  0.43118400  1
  C  1204  1  0.87661500  0.66243900  0.42269800  1
  C  1205  1  0.89192600  0.66484900  0.43990200  1
  C  1206  1  0.87472400  0.65358800  0.45269200  1
  C  1208  1  0.89381700  0.67311400  0.40942300  1
  C  1209  1  0.92724800  0.69396200  0.38251100  1
  C  1211  1  0.89499100  0.68039300  0.37933500  1
  C  1212  1  0.94305600  0.69666800  0.39955600  1
  C  1213  1  0.92642500  0.68636900  0.41323400  1
  C  1214  1  0.94124100  0.68882300  0.43041900  1
  C  1215  1  0.92421400  0.67811700  0.44364300  1
  C  1219  1  0.79171200  0.62658600  0.42464000  1
  C  1223  1  0.87797800  0.67558000  0.36196000  1
  C  1227  1  0.94445700  0.70476100  0.36928700  1
  C  1228  1  0.83022500  0.62821100  0.46162900  1
  C  1231  1  0.34294800  0.85869900  0.55029200  1
  C  1232  1  0.32746200  0.86008600  0.56767600  1
  C  1234  1  0.37655000  0.83639200  0.57613700  1
  C  1235  1  0.39185100  0.83400100  0.55892800  1
  C  1236  1  0.37462400  0.84527100  0.54615000  1
  C  1238  1  0.39376000  0.82570300  0.58939800  1
  C  1239  1  0.42718300  0.80481500  0.61628200  1
  C  1241  1  0.39495000  0.81838800  0.61947700  1
  C  1242  1  0.44299400  0.80213200  0.59923200  1
  C  1243  1  0.42636000  0.81245000  0.58556800  1
  C  1244  1  0.44117300  0.81001900  0.56837900  1
  C  1245  1  0.42413900  0.82074000  0.55517000  1
  C  1249  1  0.29165100  0.87225000  0.57424000  1
  C  1253  1  0.37793100  0.82317400  0.63685900  1
  C  1257  1  0.44441600  0.79399800  0.62948700  1
  C  1258  1  0.33007300  0.87065100  0.53723900  1
  C  1261  1  0.09102500  0.80045700  0.39019800  1
  C  1262  1  0.07526700  0.81781800  0.38894300  1
  C  1264  1  0.12448400  0.82622900  0.41261800  1
  C  1265  1  0.14004400  0.80903500  0.41488500  1
  C  1266  1  0.12287700  0.79629300  0.40356200  1
  C  1268  1  0.14168600  0.83946200  0.42334500  1
  C  1269  1  0.17523600  0.86630000  0.44426100  1
  C  1271  1  0.14272900  0.86951300  0.43078200  1
  C  1272  1  0.19121200  0.84925600  0.44684700  1
  C  1273  1  0.17453600  0.83561500  0.43650900  1
  C  1274  1  0.18958200  0.81844000  0.43882500  1
  C  1275  1  0.17255600  0.80525900  0.42806700  1
  C  1279  1  0.03920600  0.82438100  0.37687900  1
  C  1283  1  0.12554100  0.88689700  0.42609100  1
  C  1287  1  0.19268500  0.87949000  0.45504700  1
  C  1288  1  0.07835400  0.78746100  0.37815900  1
  C  1291  1  0.59088800  0.69831500  0.60867400  1
  C  1292  1  0.57526900  0.68093900  0.60997500  1
  C  1294  1  0.62434600  0.67254300  0.58625600  1
  C  1295  1  0.63973800  0.68975100  0.58393800  1
  C  1296  1  0.62255300  0.70249500  0.59525400  1
  C  1298  1  0.64158000  0.65930900  0.57553600  1
  C  1299  1  0.67521000  0.63247300  0.55463500  1
  C  1301  1  0.64282300  0.62924700  0.56815000  1
  C  1302  1  0.69101800  0.64953000  0.55200300  1
  C  1303  1  0.67429600  0.66317000  0.56233000  1
  C  1304  1  0.68916500  0.68035900  0.55996200  1
  C  1305  1  0.67210700  0.69354000  0.57071300  1
  C  1309  1  0.53937300  0.67435700  0.62209400  1
  C  1313  1  0.62580400  0.61185000  0.57287800  1
  C  1317  1  0.69265700  0.61928300  0.54385200  1
  C  1318  1  0.57820800  0.71132200  0.62070300  1
  C  1321  1  0.15728800  0.35862900  0.55056500  1
  C  1322  1  0.17274600  0.35993100  0.56795900  1
  C  1324  1  0.12336900  0.33628400  0.57631800  1
  C  1325  1  0.10810600  0.33396800  0.55909600  1
  C  1326  1  0.12547800  0.34526300  0.54636500  1
  C  1328  1  0.10595300  0.32559000  0.58954100  1
  C  1329  1  0.07209300  0.30470800  0.61635400  1
  C  1331  1  0.10447000  0.31822100  0.61960400  1
  C  1332  1  0.05636800  0.30208200  0.59928400  1
  C  1333  1  0.07320700  0.31240200  0.58565600  1
  C  1334  1  0.05846300  0.31003600  0.56845000  1
  C  1335  1  0.07568000  0.32076800  0.55528100  1
  C  1339  1  0.20870600  0.37200700  0.57457400  1
  C  1343  1  0.12138600  0.32296600  0.63701100  1
  C  1347  1  0.05470000  0.29388500  0.62952700  1
  C  1348  1  0.17014100  0.37065400  0.53757800  1
  C  1351  1  0.65747900  0.14020800  0.44825700  1
  C  1352  1  0.67293000  0.13893300  0.43086000  1
  C  1354  1  0.62352000  0.16258400  0.42253400  1
  C  1355  1  0.60827600  0.16487500  0.43976300  1
  C  1356  1  0.62567400  0.15357000  0.45247800  1
  C  1358  1  0.60608600  0.17329400  0.40933000  1
  C  1359  1  0.57221500  0.19421900  0.38255200  1
  C  1361  1  0.60456600  0.18070300  0.37927600  1
  C  1362  1  0.55650100  0.19681800  0.39962600  1
  C  1363  1  0.57335000  0.18647800  0.41323800  1
  C  1364  1  0.55861400  0.18881900  0.43044700  1
  C  1365  1  0.57584700  0.17806900  0.44360000  1
  C  1369  1  0.70885100  0.12685300  0.42422100  1
  C  1373  1  0.62148100  0.17598800  0.36186100  1
  C  1377  1  0.55477800  0.20505700  0.36939900  1
  C  1378  1  0.67039000  0.12817200  0.46122900  1
  C  1381  1  0.90728600  0.19829000  0.60863500  1
  C  1382  1  0.92280300  0.18090000  0.60990900  1
  C  1384  1  0.87341000  0.17255000  0.58626400  1
  C  1385  1  0.85810300  0.18977100  0.58397000  1
  C  1386  1  0.87547000  0.20249600  0.59527100  1
  C  1388  1  0.85600900  0.15933400  0.57555900  1
  C  1389  1  0.82217500  0.13253300  0.55465600  1
  C  1391  1  0.85457200  0.12927800  0.56816200  1
  C  1392  1  0.80642300  0.14960200  0.55204800  1
  C  1393  1  0.82324000  0.16322300  0.56238100  1
  C  1394  1  0.80844500  0.18042600  0.56003800  1
  C  1395  1  0.82565000  0.19359000  0.57078000  1
  C  1399  1  0.95881100  0.17428700  0.62196800  1
  C  1403  1  0.87151500  0.11187000  0.57289200  1
  C  1407  1  0.80476000  0.11936600  0.54382900  1
  C  1408  1  0.92014100  0.21127600  0.62066300  1
  C  1411  1  0.40744100  0.30064800  0.39016900  1
  C  1412  1  0.42278700  0.31805400  0.38883600  1
  C  1414  1  0.37353500  0.32639200  0.41252600  1
  C  1415  1  0.35843100  0.30915600  0.41488100  1
  C  1416  1  0.37582900  0.29642600  0.40359200  1
  C  1418  1  0.35609100  0.33961100  0.42322000  1
  C  1419  1  0.32215400  0.36641100  0.44409700  1
  C  1421  1  0.35441700  0.36968000  0.43055400  1
  C  1422  1  0.30659200  0.34932900  0.44676400  1
  C  1423  1  0.32347100  0.33570600  0.43644400  1
  C  1424  1  0.30888200  0.31848800  0.43884800  1
  C  1425  1  0.32613200  0.30532300  0.42811900  1
  C  1429  1  0.45861000  0.32468800  0.37671600  1
  C  1433  1  0.37117700  0.38710000  0.42578400  1
  C  1437  1  0.30475400  0.37957900  0.45492400  1
  C  1438  1  0.42031400  0.28764700  0.37815800  1
  C  1441  1  0.27462200  0.31655000  0.01857580  1
  C  1442  1  0.30919800  0.30384400  0.02132180  1
  C  1443  1  0.35191200  0.30389300  0.01214680  1
  C  1444  1  0.36003800  0.31726300  0.00008883  1
  C  1445  1  0.32645700  0.33044400  0.99734600  1
  C  1446  1  0.28324300  0.32971300  0.00633683  1
  C  1449  1  0.23151700  0.31565600  0.02775780  1
  C  1450  1  0.20186500  0.30103600  0.02665480  1
  C  1451  1  0.15986600  0.30030300  0.03634480  1
  C  1452  1  0.14770900  0.31425800  0.04722380  1
  C  1453  1  0.17712000  0.32888700  0.04859880  1
  C  1454  1  0.21829700  0.32948900  0.03852780  1
  C  1471  1  0.77459700  0.64620100  0.03183280  1
  C  1472  1  0.80920500  0.65889600  0.02909480  1
  C  1473  1  0.85187900  0.65884400  0.03829680  1
  C  1474  1  0.85994200  0.64547500  0.05036180  1
  C  1475  1  0.82633700  0.63229800  0.05308780  1
  C  1476  1  0.78315500  0.63303800  0.04407780  1
  C  1479  1  0.73153100  0.64709400  0.02262480  1
  C  1480  1  0.70187000  0.66171300  0.02371080  1
  C  1481  1  0.65988200  0.66243300  0.01401280  1
  C  1482  1  0.64773400  0.64846600  0.00314883  1
  C  1483  1  0.67715800  0.63383900  0.00178983  1
  C  1484  1  0.71833600  0.63325200  0.01186180  1
  C  1501  1  0.52454600  0.48801500  0.86036900  1
  C  1502  1  0.55913200  0.48526000  0.84766900  1
  C  1503  1  0.60182700  0.49444800  0.84770800  1
  C  1504  1  0.60994300  0.50651400  0.86107300  1
  C  1505  1  0.57636200  0.50925300  0.87425500  1
  C  1506  1  0.53315900  0.50025600  0.87353100  1
  C  1509  1  0.48145100  0.47882300  0.85948100  1
  C  1510  1  0.45176900  0.47992600  0.84487000  1
  C  1511  1  0.40978500  0.47022800  0.84414600  1
  C  1512  1  0.39765800  0.45935000  0.85810500  1
  C  1513  1  0.42709900  0.45797600  0.87272600  1
  C  1514  1  0.46827000  0.46804900  0.87331700  1
  C  1531  1  0.02454300  0.47471400  0.19003400  1
  C  1532  1  0.05916000  0.47748200  0.20271900  1
  C  1533  1  0.10184900  0.46828900  0.20267500  1
  C  1534  1  0.10994400  0.45621900  0.18931200  1
  C  1535  1  0.07633000  0.45346700  0.17614300  1
  C  1536  1  0.03311600  0.46245700  0.17688400  1
  C  1539  1  0.98146000  0.48391000  0.19091900  1
  C  1540  1  0.95179500  0.48282900  0.20553700  1
  C  1541  1  0.90979000  0.49251700  0.20624700  1
  C  1542  1  0.89763200  0.50336900  0.19227100  1
  C  1543  1  0.92706600  0.50472600  0.17764500  1
  C  1544  1  0.96824800  0.49465800  0.17706700  1
  C  1561  1  0.72430800  0.14641000  0.03208380  1
  C  1562  1  0.68946600  0.15906100  0.02953180  1
  C  1563  1  0.64710400  0.15887000  0.03891080  1
  C  1564  1  0.63961100  0.14547900  0.05099780  1
  C  1565  1  0.67351100  0.13237800  0.05356480  1
  C  1566  1  0.71636400  0.13321600  0.04435680  1
  C  1569  1  0.76692600  0.14731200  0.02261080  1
  C  1570  1  0.79673800  0.16189400  0.02359180  1
  C  1571  1  0.83839300  0.16255300  0.01372380  1
  C  1572  1  0.85024300  0.14856200  0.00285383  1
  C  1573  1  0.82066200  0.13397100  0.00159483  1
  C  1574  1  0.77968700  0.13345700  0.01178380  1
  C  1591  1  0.22433400  0.81632300  0.01827080  1
  C  1592  1  0.18945000  0.80368700  0.02082280  1
  C  1593  1  0.14712600  0.80387900  0.01141980  1
  C  1594  1  0.13970000  0.81726200  0.99931900  1
  C  1595  1  0.17363200  0.83035400  0.99675800  1
  C  1596  1  0.21646000  0.82950800  0.00598283  1
  C  1599  1  0.26691500  0.81542500  0.02776880  1
  C  1600  1  0.29672000  0.80084100  0.02681680  1
  C  1601  1  0.33836200  0.80019500  0.03669480  1
  C  1602  1  0.35021200  0.81420600  0.04753880  1
  C  1603  1  0.32063200  0.82879800  0.04876980  1
  C  1604  1  0.27966200  0.82929700  0.03857780  1
  C  1621  1  0.47411600  0.97460300  0.18998600  1
  C  1622  1  0.43954100  0.97738500  0.20268400  1
  C  1623  1  0.39680700  0.96822000  0.20265300  1
  C  1624  1  0.38863500  0.95615600  0.18929200  1
  C  1625  1  0.42220200  0.95339200  0.17610900  1
  C  1626  1  0.46544400  0.96236300  0.17683000  1
  C  1629  1  0.51726000  0.98376600  0.19087900  1
  C  1630  1  0.54687900  0.98266900  0.20550900  1
  C  1631  1  0.58889100  0.99235000  0.20624600  1
  C  1632  1  0.60113400  0.00319451  0.19227600  1
  C  1633  1  0.57177000  0.00455651  0.17763200  1
  C  1634  1  0.53054900  0.99451100  0.17703500  1
  C  1651  1  0.97411100  0.98814400  0.86038600  1
  C  1652  1  0.93950000  0.98534100  0.84770500  1
  C  1653  1  0.89676700  0.99450200  0.84774500  1
  C  1654  1  0.88860200  0.00657151  0.86110100  1
  C  1655  1  0.92220400  0.00935651  0.87426900  1
  C  1656  1  0.96547000  0.00039951  0.87353100  1
  C  1659  1  0.01726200  0.97898700  0.85949300  1
  C  1660  1  0.04686400  0.98007800  0.84485800  1
  C  1661  1  0.08891600  0.97041900  0.84413000  1
  C  1662  1  0.10119800  0.95959500  0.85811200  1
  C  1663  1  0.07184400  0.95823300  0.87275600  1
  C  1664  1  0.03059500  0.96826300  0.87334800  1
  C  1681  1  0.77472000  0.81657000  0.51843000  1
  C  1682  1  0.80928900  0.80386900  0.52120700  1
  C  1683  1  0.85205000  0.80391600  0.51206400  1
  C  1684  1  0.86024300  0.81728300  0.50000800  1
  C  1685  1  0.82667600  0.83046400  0.49723800  1
  C  1686  1  0.78341000  0.82973200  0.50619500  1
  C  1689  1  0.73155900  0.81567200  0.52758000  1
  C  1690  1  0.70196800  0.80103500  0.52648400  1
  C  1691  1  0.65994100  0.80028900  0.53615800  1
  C  1692  1  0.64767800  0.81425600  0.54700300  1
  C  1693  1  0.67701400  0.82890600  0.54836800  1
  C  1694  1  0.71823800  0.82951400  0.53832300  1
  C  1711  1  0.27470200  0.14617700  0.53197300  1
  C  1712  1  0.30928800  0.15887200  0.52919400  1
  C  1713  1  0.35202100  0.15883300  0.53835700  1
  C  1714  1  0.36018200  0.14547000  0.55042100  1
  C  1715  1  0.32660900  0.13229100  0.55318600  1
  C  1716  1  0.28335900  0.13302100  0.54421700  1
  C  1719  1  0.23156600  0.14706700  0.52280600  1
  C  1720  1  0.20195700  0.16170200  0.52389000  1
  C  1721  1  0.15993500  0.16243000  0.51421400  1
  C  1722  1  0.14767800  0.14845000  0.50338400  1
  C  1723  1  0.17703300  0.13380400  0.50203300  1
  C  1724  1  0.21826700  0.13321500  0.51207300  1
  C  1741  1  0.02447200  0.98829600  0.36014800  1
  C  1742  1  0.05931900  0.98573900  0.34750000  1
  C  1743  1  0.10165900  0.99513400  0.34767900  1
  C  1744  1  0.10914100  0.00722751  0.36106500  1
  C  1745  1  0.07524700  0.00979051  0.37416800  1
  C  1746  1  0.03240800  0.00057151  0.37334000  1
  C  1749  1  0.98187000  0.97881200  0.35925800  1
  C  1750  1  0.95201900  0.97979000  0.34468700  1
  C  1751  1  0.91037500  0.96991400  0.34404000  1
  C  1752  1  0.89856000  0.95904900  0.35803900  1
  C  1753  1  0.92817900  0.95779500  0.37261900  1
  C  1754  1  0.96915100  0.96798400  0.37311800  1
  C  1771  1  0.52447200  0.97442800  0.69024800  1
  C  1772  1  0.55932800  0.97699500  0.70289100  1
  C  1773  1  0.60166200  0.96759700  0.70271400  1
  C  1774  1  0.60914400  0.95550100  0.68933100  1
  C  1775  1  0.57524100  0.95293000  0.67623000  1
  C  1776  1  0.53239200  0.96214000  0.67706700  1
  C  1779  1  0.48187200  0.98391600  0.69113200  1
  C  1780  1  0.45201700  0.98294800  0.70570200  1
  C  1781  1  0.41034900  0.99281400  0.70633000  1
  C  1782  1  0.39852300  0.00365751  0.69231600  1
  C  1783  1  0.42816000  0.00490551  0.67773800  1
  C  1784  1  0.46914900  0.99472500  0.67725800  1
  C  1801  1  0.22419200  0.64637800  0.53222800  1
  C  1802  1  0.18937100  0.65903400  0.52964700  1
  C  1803  1  0.14695700  0.65884800  0.53899300  1
  C  1804  1  0.13938200  0.64546000  0.55107500  1
  C  1805  1  0.17325400  0.63235300  0.55366900  1
  C  1806  1  0.21616100  0.63318500  0.54449400  1
  C  1809  1  0.26687600  0.64728200  0.52279200  1
  C  1810  1  0.29665600  0.66187300  0.52378800  1
  C  1811  1  0.33835200  0.66254300  0.51394300  1
  C  1812  1  0.35030100  0.64854500  0.50309700  1
  C  1813  1  0.32076500  0.63394200  0.50182900  1
  C  1814  1  0.27972500  0.63342300  0.51198200  1
  C  1831  1  0.72422800  0.31634600  0.51814000  1
  C  1832  1  0.68936500  0.30370800  0.52072400  1
  C  1833  1  0.64698800  0.30389200  0.51135300  1
  C  1834  1  0.63947500  0.31727300  0.49925700  1
  C  1835  1  0.67337800  0.33037000  0.49666700  1
  C  1836  1  0.71626200  0.32953000  0.50585700  1
  C  1839  1  0.76687400  0.31544700  0.52760200  1
  C  1840  1  0.79662300  0.30084400  0.52665200  1
  C  1841  1  0.83829500  0.30018800  0.53651000  1
  C  1842  1  0.85026400  0.31421000  0.54732100  1
  C  1843  1  0.82075700  0.32882400  0.54854300  1
  C  1844  1  0.77972900  0.32932700  0.53838300  1
  C  1861  1  0.97419900  0.47432300  0.69020800  1
  C  1862  1  0.93935700  0.47690600  0.70285600  1
  C  1863  1  0.89697700  0.46753800  0.70268000  1
  C  1864  1  0.88943900  0.45544700  0.68929700  1
  C  1865  1  0.92331800  0.45285900  0.67619200  1
  C  1866  1  0.96620200  0.46204900  0.67701900  1
  C  1869  1  0.01685900  0.48377500  0.69110800  1
  C  1870  1  0.04664100  0.48279600  0.70570000  1
  C  1871  1  0.08831700  0.49265100  0.70636300  1
  C  1872  1  0.10025600  0.50348800  0.69235800  1
  C  1873  1  0.07072000  0.50473700  0.67775400  1
  C  1874  1  0.02969100  0.49457900  0.67724200  1
  C  1891  1  0.47416500  0.48841800  0.36017200  1
  C  1892  1  0.43929500  0.48581700  0.34754100  1
  C  1893  1  0.39692300  0.49518900  0.34771600  1
  C  1894  1  0.38940200  0.50729100  0.36109200  1
  C  1895  1  0.42330900  0.50989500  0.37418300  1
  C  1896  1  0.46620700  0.50071400  0.37334400  1
  C  1899  1  0.51682600  0.47896500  0.35927500  1
  C  1900  1  0.54657100  0.47991600  0.34467300  1
  C  1901  1  0.58826400  0.47006800  0.34402200  1
  C  1902  1  0.60024700  0.45926500  0.35804800  1
  C  1903  1  0.57073700  0.45803900  0.37266100  1
  C  1904  1  0.52969800  0.46819300  0.37316100  1
  C  1921  1  0.08038800  0.26543300  0.02199280  1
  C  1922  1  0.09312500  0.24933300  0.02941780  1
  C  1924  1  0.01602200  0.23803200  0.02421480  1
  C  1925  1  0.00173400  0.25369200  0.01641480  1
  C  1926  1  0.03445300  0.26726800  0.01537280  1
  C  1928  1  0.98444400  0.22411400  0.02549580  1
  C  1929  1  0.92307200  0.19577700  0.02788980  1
  C  1931  1  0.96954700  0.19497000  0.03445780  1
  C  1932  1  0.90811200  0.21139900  0.02022380  1
  C  1933  1  0.93830900  0.22571900  0.01894480  1
  C  1934  1  0.92415500  0.24137100  0.01126980  1
  C  1935  1  0.95562000  0.25526400  0.01003380  1
  C  1939  1  0.14022400  0.24455600  0.03586680  1
  C  1943  1  0.99072100  0.17940800  0.04228980  1
  C  1947  1  0.89167000  0.18157000  0.02833880  1
  C  1948  1  0.11107400  0.27979500  0.02139380  1
  C  1951  1  0.58029200  0.69727000  0.02837680  1
  C  1952  1  0.59309100  0.71338500  0.02099680  1
  C  1954  1  0.51600600  0.72470200  0.02620780  1
  C  1955  1  0.50166900  0.70903000  0.03397280  1
  C  1956  1  0.53435000  0.69544000  0.03499480  1
  C  1958  1  0.48446000  0.73863100  0.02494680  1
  C  1959  1  0.42313000  0.76698400  0.02257280  1
  C  1961  1  0.46963300  0.76779500  0.01603180  1
  C  1962  1  0.40813100  0.75135400  0.03021180  1
  C  1963  1  0.43830800  0.73702600  0.03147980  1
  C  1964  1  0.42410400  0.72136300  0.03912280  1
  C  1965  1  0.45554100  0.70746000  0.04034180  1
  C  1969  1  0.64019600  0.71815300  0.01455180  1
  C  1973  1  0.49083500  0.78336300  0.00822183  1
  C  1977  1  0.39173100  0.78119100  0.02211380  1
  C  1978  1  0.61091000  0.68289100  0.02895380  1
  C  1981  1  0.33024300  0.48456400  0.80928700  1
  C  1982  1  0.34302700  0.47715000  0.79318600  1
  C  1984  1  0.26590900  0.48231300  0.78187700  1
  C  1985  1  0.25158000  0.49010600  0.79753600  1
  C  1986  1  0.28428800  0.49116900  0.81111400  1
  C  1988  1  0.23433600  0.48100500  0.76796000  1
  C  1989  1  0.17296100  0.47854200  0.73962800  1
  C  1991  1  0.21947600  0.47201300  0.73882300  1
  C  1992  1  0.15796700  0.48620900  0.75524600  1
  C  1993  1  0.18816600  0.48752200  0.76956200  1
  C  1994  1  0.17397700  0.49519600  0.78521200  1
  C  1995  1  0.20543600  0.49645900  0.79910300  1
  C  1999  1  0.39015500  0.47072800  0.78841400  1
  C  2003  1  0.24069100  0.46419200  0.72326100  1
  C  2007  1  0.14155500  0.47805200  0.72542700  1
  C  2008  1  0.36090400  0.48517600  0.82365600  1
  C  2011  1  0.83020700  0.47819400  0.24109600  1
  C  2012  1  0.84297800  0.48560600  0.25719900  1
  C  2014  1  0.76588300  0.48041200  0.26851000  1
  C  2015  1  0.75157000  0.47261600  0.25285100  1
  C  2016  1  0.78427900  0.47156300  0.23927200  1
  C  2018  1  0.73430900  0.48170400  0.28242800  1
  C  2019  1  0.67292600  0.48414500  0.31076100  1
  C  2021  1  0.71943200  0.49068600  0.31156900  1
  C  2022  1  0.65795200  0.47647300  0.29514300  1
  C  2023  1  0.68815600  0.47517100  0.28082700  1
  C  2024  1  0.67398100  0.46749800  0.26517500  1
  C  2025  1  0.70544200  0.46624800  0.25128300  1
  C  2029  1  0.89009400  0.49204300  0.26197200  1
  C  2033  1  0.74062400  0.49851000  0.32713200  1
  C  2037  1  0.64151300  0.48463100  0.32496100  1
  C  2038  1  0.86085300  0.47759000  0.22672400  1
  C  2041  1  0.92318800  0.69579200  0.02266080  1
  C  2042  1  0.91213300  0.71052200  0.03280580  1
  C  2044  1  0.98364600  0.72442500  0.02422080  1
  C  2045  1  0.99588800  0.71023800  0.01361980  1
  C  2046  1  0.96514400  0.69601800  0.01294980  1
  C  2048  1  0.01335200  0.73891400  0.02526580  1
  C  2049  1  0.07092500  0.76834700  0.02732180  1
  C  2051  1  0.02864000  0.76707700  0.03692580  1
  C  2052  1  0.08382800  0.75421000  0.01679780  1
  C  2053  1  0.05551900  0.73937000  0.01564080  1
  C  2054  1  0.06770300  0.72518400  0.00516283  1
  C  2055  1  0.03814600  0.71071500  0.00418383  1
  C  2059  1  0.86841500  0.71322400  0.04274280  1
  C  2063  1  0.01000300  0.78095800  0.04807880  1
  C  2067  1  0.10029300  0.78314400  0.02756680  1
  C  2068  1  0.89454900  0.68085600  0.02225580  1
  C  2071  1  0.42311600  0.26693300  0.02778880  1
  C  2072  1  0.41206800  0.25220900  0.01763480  1
  C  2074  1  0.48362300  0.23832000  0.02618880  1
  C  2075  1  0.49584800  0.25249600  0.03680580  1
  C  2076  1  0.46507600  0.26670700  0.03749780  1
  C  2078  1  0.51336500  0.22384300  0.02511880  1
  C  2079  1  0.57099200  0.19442800  0.02301980  1
  C  2081  1  0.52869300  0.19569700  0.01342380  1
  C  2082  1  0.58388200  0.20855600  0.03355780  1
  C  2083  1  0.55554500  0.22338900  0.03473780  1
  C  2084  1  0.56771000  0.23756300  0.04523080  1
  C  2085  1  0.53811900  0.25202100  0.04623480  1
  C  2089  1  0.36836500  0.24951500  0.00768883  1
  C  2093  1  0.51010000  0.18183100  0.00224583  1
  C  2097  1  0.60037000  0.17963500  0.02276480  1
  C  2098  1  0.39446000  0.28186600  0.02820380  1
  C  2101  1  0.67302800  0.47879900  0.81074400  1
  C  2102  1  0.66201500  0.48895000  0.79601600  1
  C  2104  1  0.73355200  0.48036400  0.78213200  1
  C  2105  1  0.74575600  0.46975800  0.79631900  1
  C  2106  1  0.71497700  0.46908100  0.81052800  1
  C  2108  1  0.76329400  0.48141300  0.76765400  1
  C  2109  1  0.82092100  0.48347000  0.73823500  1
  C  2111  1  0.77864300  0.49308000  0.73949700  1
  C  2112  1  0.83379800  0.47294600  0.75237500  1
  C  2113  1  0.80546000  0.47178600  0.76720800  1
  C  2114  1  0.81760400  0.46130200  0.78139300  1
  C  2115  1  0.78801300  0.46031800  0.79585200  1
  C  2119  1  0.61831100  0.49889500  0.79330600  1
  C  2123  1  0.76004300  0.50423700  0.72561400  1
  C  2127  1  0.85029900  0.48370500  0.72344200  1
  C  2128  1  0.64433700  0.47839300  0.82566900  1
  C  2131  1  0.17312100  0.48395000  0.23961200  1
  C  2132  1  0.16206200  0.47380400  0.25434100  1
  C  2134  1  0.23357600  0.48238000  0.26824400  1
  C  2135  1  0.24581300  0.49299000  0.25406400  1
  C  2136  1  0.21505800  0.49367300  0.23984700  1
  C  2138  1  0.26329400  0.48132300  0.28273000  1
  C  2139  1  0.32087100  0.47925300  0.31216000  1
  C  2141  1  0.27859000  0.46964800  0.31088700  1
  C  2142  1  0.33377500  0.48978200  0.29802700  1
  C  2143  1  0.30546400  0.49094700  0.28318600  1
  C  2144  1  0.31764200  0.50143300  0.26900800  1
  C  2145  1  0.28807500  0.50242400  0.25454200  1
  C  2149  1  0.11833900  0.46386800  0.25703900  1
  C  2153  1  0.25996300  0.45848800  0.32476200  1
  C  2157  1  0.35021700  0.47901600  0.32696200  1
  C  2158  1  0.14449700  0.48435700  0.22467200  1
  C  2161  1  0.66835900  0.97804400  0.24114700  1
  C  2162  1  0.65560200  0.98548000  0.25724000  1
  C  2164  1  0.73271500  0.98030800  0.26855200  1
  C  2165  1  0.74702400  0.97250000  0.25289800  1
  C  2166  1  0.71431100  0.97143500  0.23932100  1
  C  2168  1  0.76428500  0.98161100  0.28246800  1
  C  2169  1  0.82565400  0.98405000  0.31080600  1
  C  2171  1  0.77915800  0.99060000  0.31160600  1
  C  2172  1  0.84063500  0.97637800  0.29518900  1
  C  2173  1  0.81043800  0.97507500  0.28087100  1
  C  2174  1  0.82461700  0.96739500  0.26522300  1
  C  2175  1  0.79315500  0.96613500  0.25133200  1
  C  2179  1  0.60848900  0.99192200  0.26200700  1
  C  2183  1  0.75795900  0.99843200  0.32716400  1
  C  2187  1  0.85705600  0.98452400  0.32501100  1
  C  2188  1  0.63770200  0.97742800  0.22678100  1
  C  2191  1  0.16828100  0.98472300  0.80920600  1
  C  2192  1  0.15553800  0.97727800  0.79311500  1
  C  2194  1  0.23265600  0.98245100  0.78181000  1
  C  2195  1  0.24694600  0.99027100  0.79746000  1
  C  2196  1  0.21422100  0.99134300  0.81103200  1
  C  2198  1  0.26424100  0.98114200  0.76789700  1
  C  2199  1  0.32563200  0.97869100  0.73956900  1
  C  2201  1  0.27913900  0.97213800  0.73876600  1
  C  2202  1  0.34059100  0.98637800  0.75518000  1
  C  2203  1  0.31038500  0.98768600  0.76949500  1
  C  2204  1  0.32454200  0.99538000  0.78513700  1
  C  2205  1  0.29306900  0.99664600  0.79902600  1
  C  2209  1  0.10845500  0.97080100  0.78835900  1
  C  2213  1  0.25797600  0.96427800  0.72321500  1
  C  2217  1  0.35704400  0.97821000  0.72536900  1
  C  2218  1  0.13759200  0.98535000  0.82356600  1
  C  2221  1  0.32570500  0.98389700  0.23962800  1
  C  2222  1  0.33672300  0.97374800  0.25435800  1
  C  2224  1  0.26519600  0.98233700  0.26824400  1
  C  2225  1  0.25298500  0.99294100  0.25405600  1
  C  2226  1  0.28375900  0.99361500  0.23984600  1
  C  2228  1  0.23545400  0.98128800  0.28272300  1
  C  2229  1  0.17782100  0.97922800  0.31214100  1
  C  2231  1  0.22010500  0.96962200  0.31088000  1
  C  2232  1  0.16494300  0.98975200  0.29800100  1
  C  2233  1  0.19328500  0.99091300  0.28316800  1
  C  2234  1  0.18113500  0.00139351  0.26898200  1
  C  2235  1  0.21072700  0.00237951  0.25452400  1
  C  2239  1  0.38042100  0.96379700  0.25706400  1
  C  2243  1  0.23871200  0.95846500  0.32476200  1
  C  2247  1  0.14842900  0.97898400  0.32693100  1
  C  2248  1  0.35437800  0.98429300  0.22470000  1
  C  2251  1  0.82560500  0.97880100  0.81079600  1
  C  2252  1  0.83665600  0.98894900  0.79606900  1
  C  2254  1  0.76515000  0.98036500  0.78216500  1
  C  2255  1  0.75291900  0.96975300  0.79634600  1
  C  2256  1  0.78367700  0.96907400  0.81056300  1
  C  2258  1  0.73542200  0.98142000  0.76768100  1
  C  2259  1  0.67782000  0.98349700  0.73825800  1
  C  2261  1  0.72010500  0.99310100  0.73952900  1
  C  2262  1  0.66492600  0.97296500  0.75239000  1
  C  2263  1  0.69325300  0.97179500  0.76722700  1
  C  2264  1  0.68108400  0.96130900  0.78140700  1
  C  2265  1  0.71066100  0.96031800  0.79586900  1
  C  2269  1  0.88036300  0.99889400  0.79337300  1
  C  2273  1  0.73872200  0.00426351  0.72565300  1
  C  2277  1  0.64844500  0.98374600  0.72346300  1
  C  2278  1  0.85421500  0.97840800  0.82574000  1
  C  2281  1  0.58051300  0.76537500  0.52188600  1
  C  2282  1  0.59321400  0.74929100  0.52935600  1
  C  2284  1  0.51605100  0.73801100  0.52422100  1
  C  2285  1  0.50179500  0.75365600  0.51638200  1
  C  2286  1  0.53456000  0.76721400  0.51528200  1
  C  2288  1  0.48442500  0.72411500  0.52556100  1
  C  2289  1  0.42294800  0.69581700  0.52807400  1
  C  2291  1  0.46945100  0.69500500  0.53461600  1
  C  2292  1  0.40802300  0.71142300  0.52036800  1
  C  2293  1  0.43826900  0.72572300  0.51902900  1
  C  2294  1  0.42414600  0.74136100  0.51131600  1
  C  2295  1  0.45566000  0.75523400  0.51002100  1
  C  2299  1  0.64032200  0.74451100  0.53579400  1
  C  2303  1  0.49060400  0.67945100  0.54247500  1
  C  2307  1  0.39151800  0.68162100  0.52856200  1
  C  2308  1  0.61123600  0.77972400  0.52124400  1
  C  2311  1  0.08040500  0.19731000  0.52851100  1
  C  2312  1  0.09317300  0.21341300  0.52109600  1
  C  2314  1  0.01603300  0.22470700  0.52624400  1
  C  2315  1  0.00172300  0.20904800  0.53404100  1
  C  2316  1  0.03444900  0.19547700  0.53511200  1
  C  2318  1  0.98444100  0.23861700  0.52493100  1
  C  2319  1  0.92301600  0.26693500  0.52245700  1
  C  2321  1  0.96954400  0.26775300  0.51593900  1
  C  2322  1  0.90804600  0.25131600  0.53012700  1
  C  2323  1  0.93826700  0.23700600  0.53144500  1
  C  2324  1  0.92409500  0.22135700  0.53912000  1
  C  2325  1  0.95557500  0.20747200  0.54038900  1
  C  2329  1  0.14028200  0.21818000  0.51465200  1
  C  2333  1  0.99072100  0.28331500  0.50810700  1
  C  2337  1  0.89158600  0.28113100  0.52195900  1
  C  2338  1  0.11105600  0.18294000  0.52912400  1
  C  2341  1  0.42317200  0.19578900  0.52266900  1
  C  2342  1  0.41213200  0.21052000  0.53281500  1
  C  2344  1  0.48362300  0.22442200  0.52421300  1
  C  2345  1  0.49585500  0.21023500  0.51361100  1
  C  2346  1  0.46510700  0.19601500  0.51294600  1
  C  2348  1  0.51333300  0.23891100  0.52525200  1
  C  2349  1  0.57090500  0.26834600  0.52729200  1
  C  2351  1  0.52863700  0.26707700  0.53690600  1
  C  2352  1  0.58380200  0.25420700  0.51677000  1
  C  2353  1  0.55549300  0.23936500  0.51562000  1
  C  2354  1  0.56766100  0.22518000  0.50514100  1
  C  2355  1  0.53809800  0.21071200  0.50416500  1
  C  2359  1  0.36843100  0.21321900  0.54276500  1
  C  2363  1  0.51001300  0.28095900  0.54805900  1
  C  2367  1  0.60026500  0.28314500  0.52752500  1
  C  2368  1  0.39453000  0.18085100  0.52227400  1
  C  2371  1  0.92318500  0.76695700  0.52775600  1
  C  2372  1  0.91215800  0.75223600  0.51759600  1
  C  2374  1  0.98364900  0.73833000  0.52619000  1
  C  2375  1  0.99585600  0.75250400  0.53681300  1
  C  2376  1  0.96509500  0.76671900  0.53749300  1
  C  2378  1  0.01337800  0.72384700  0.52513300  1
  C  2379  1  0.07097800  0.69442400  0.52305900  1
  C  2381  1  0.02871800  0.69570100  0.51344100  1
  C  2382  1  0.08385000  0.70854900  0.53360200  1
  C  2383  1  0.05552700  0.72338600  0.53476900  1
  C  2384  1  0.06767200  0.73755900  0.54526900  1
  C  2385  1  0.03809500  0.75202200  0.54626100  1
  C  2389  1  0.86846400  0.74954400  0.50763800  1
  C  2393  1  0.01012400  0.68183100  0.50226500  1
  C  2397  1  0.10033200  0.67962400  0.52281900  1
  C  2398  1  0.89457000  0.78190100  0.52815100  1
  C  2401  1  0.34253500  0.37210100  0.97445100  1
  C  2402  1  0.32679700  0.37070600  0.95709700  1
  C  2404  1  0.37565700  0.39443100  0.94854400  1
  C  2405  1  0.39123400  0.39681700  0.96572100  1
  C  2406  1  0.37424200  0.38553500  0.97853000  1
  C  2408  1  0.39264600  0.40512600  0.93524900  1
  C  2409  1  0.42577800  0.42598200  0.90829400  1
  C  2411  1  0.39341600  0.41243700  0.90516700  1
  C  2412  1  0.44181400  0.42867100  0.92531400  1
  C  2413  1  0.42533000  0.41836900  0.93901300  1
  C  2414  1  0.44040600  0.42080000  0.95617100  1
  C  2415  1  0.42356800  0.41008100  0.96941500  1
  C  2419  1  0.29090200  0.35853600  0.95060700  1
  C  2423  1  0.37615800  0.40765800  0.88781500  1
  C  2427  1  0.44301900  0.43673800  0.89504500  1
  C  2428  1  0.32991400  0.36014300  0.98752500  1
  C  2431  1  0.84234800  0.59063100  0.07595080  1
  C  2432  1  0.82659200  0.59199600  0.09330480  1
  C  2434  1  0.87550100  0.56827700  0.10183100  1
  C  2435  1  0.89108200  0.56591400  0.08465280  1
  C  2436  1  0.87406900  0.57720400  0.07185480  1
  C  2438  1  0.89251100  0.55756900  0.11511400  1
  C  2439  1  0.92565100  0.53667800  0.14204100  1
  C  2441  1  0.89329500  0.55022000  0.14518800  1
  C  2442  1  0.94169700  0.53401600  0.12501800  1
  C  2443  1  0.92520900  0.54433400  0.11133200  1
  C  2444  1  0.94029200  0.54192900  0.09417280  1
  C  2445  1  0.92344000  0.55266200  0.08094180  1
  C  2449  1  0.79071700  0.60416400  0.09981280  1
  C  2453  1  0.87602000  0.55497200  0.16254400  1
  C  2457  1  0.94293300  0.52590900  0.15527400  1
  C  2458  1  0.82967800  0.60259900  0.06288880  1
  C  2461  1  0.59254100  0.53210600  0.91591800  1
  C  2462  1  0.57674400  0.54945300  0.91454800  1
  C  2464  1  0.62564600  0.55800300  0.93826200  1
  C  2465  1  0.64126800  0.54083000  0.94062900  1
  C  2466  1  0.62426900  0.52802100  0.92934500  1
  C  2468  1  0.64263800  0.57129500  0.94896100  1
  C  2469  1  0.67577000  0.59824200  0.96982700  1
  C  2471  1  0.64337000  0.60137200  0.95629500  1
  C  2472  1  0.69183400  0.58122300  0.97250000  1
  C  2473  1  0.67536100  0.56752800  0.96219100  1
  C  2474  1  0.69048600  0.55037500  0.96460200  1
  C  2475  1  0.67364800  0.53713300  0.95387800  1
  C  2479  1  0.54079100  0.55594300  0.90239900  1
  C  2483  1  0.62608000  0.61872300  0.95152800  1
  C  2487  1  0.69303900  0.61148900  0.98058200  1
  C  2488  1  0.57991400  0.51903100  0.90396000  1
  C  2491  1  0.09234900  0.43055900  0.13449800  1
  C  2492  1  0.07671500  0.41319500  0.13591500  1
  C  2494  1  0.12547100  0.40466600  0.11215400  1
  C  2495  1  0.14089900  0.42185600  0.10973400  1
  C  2496  1  0.12387700  0.43466300  0.12101300  1
  C  2498  1  0.14249700  0.39137700  0.10145800  1
  C  2499  1  0.17572200  0.36443600  0.08060580  1
  C  2501  1  0.14345800  0.36128800  0.09417680  1
  C  2502  1  0.19160400  0.38147000  0.07788380  1
  C  2503  1  0.17507300  0.39516300  0.08818380  1
  C  2504  1  0.19000300  0.41233200  0.08572180  1
  C  2505  1  0.17312600  0.42556900  0.09643980  1
  C  2509  1  0.04093900  0.40668300  0.14812100  1
  C  2513  1  0.12635200  0.34392200  0.09897980  1
  C  2517  1  0.19299600  0.35119200  0.06985080  1
  C  2518  1  0.07971000  0.44364200  0.14644600  1
  C  2521  1  0.65783600  0.09058350  0.07622280  1
  C  2522  1  0.67352200  0.09186750  0.09359080  1
  C  2524  1  0.62433600  0.06818650  0.10200600  1
  C  2525  1  0.60882900  0.06589650  0.08480880  1
  C  2526  1  0.62600000  0.07721350  0.07206180  1
  C  2528  1  0.60711600  0.05747050  0.11524500  1
  C  2529  1  0.57353500  0.03657450  0.14209300  1
  C  2531  1  0.60600900  0.05006350  0.14530200  1
  C  2532  1  0.55759800  0.03396850  0.12504700  1
  C  2533  1  0.57429900  0.04429350  0.11140100  1
  C  2534  1  0.55931400  0.04195250  0.09422080  1
  C  2535  1  0.57635500  0.05270050  0.08103380  1
  C  2539  1  0.70953700  0.10395100  0.10015600  1
  C  2543  1  0.62315200  0.05477350  0.16268900  1
  C  2547  1  0.55610200  0.02579350  0.15529000  1
  C  2548  1  0.67050600  0.10262200  0.06322680  1
  C  2551  1  0.15804600  0.87215400  0.97412100  1
  C  2552  1  0.17374100  0.87089600  0.95675200  1
  C  2554  1  0.12452500  0.89457800  0.94836300  1
  C  2555  1  0.10902300  0.89684700  0.96556500  1
  C  2556  1  0.12621400  0.88552000  0.97829800  1
  C  2558  1  0.10729700  0.90530800  0.93513800  1
  C  2559  1  0.07371200  0.92624100  0.90831900  1
  C  2561  1  0.10617200  0.91275200  0.90509000  1
  C  2562  1  0.05777700  0.92882300  0.92536800  1
  C  2563  1  0.07448200  0.91848000  0.93900000  1
  C  2564  1  0.05949300  0.92079800  0.95618200  1
  C  2565  1  0.07654400  0.91003700  0.96935600  1
  C  2569  1  0.20970800  0.85880500  0.95016700  1
  C  2573  1  0.12332700  0.90807100  0.88769800  1
  C  2577  1  0.05623800  0.93703600  0.89514100  1
  C  2578  1  0.17076200  0.86010700  0.98710700  1
  C  2581  1  0.40575300  0.93053200  0.13446200  1
  C  2582  1  0.42130500  0.91315500  0.13585000  1
  C  2584  1  0.37222800  0.90467000  0.11216200  1
  C  2585  1  0.35686800  0.92187000  0.10977000  1
  C  2586  1  0.37406700  0.93466000  0.12103500  1
  C  2588  1  0.35504000  0.89139800  0.10148000  1
  C  2589  1  0.32163100  0.86449200  0.08061980  1
  C  2591  1  0.35391600  0.86131500  0.09417980  1
  C  2592  1  0.30579000  0.88153500  0.07792680  1
  C  2593  1  0.32240300  0.89521100  0.08823480  1
  C  2594  1  0.30753400  0.91239100  0.08580080  1
  C  2595  1  0.32454700  0.92561200  0.09651380  1
  C  2599  1  0.45720500  0.90661500  0.14799200  1
  C  2603  1  0.37096000  0.84394000  0.09898280  1
  C  2607  1  0.30439700  0.85127100  0.06982080  1
  C  2608  1  0.41857000  0.94359500  0.14640800  1
  C  2611  1  0.90593300  0.03228750  0.91588900  1
  C  2612  1  0.92130400  0.04968150  0.91444400  1
  C  2614  1  0.87238700  0.05815450  0.93818100  1
  C  2615  1  0.85723500  0.04093650  0.94063600  1
  C  2616  1  0.87445800  0.02814450  0.92938100  1
  C  2618  1  0.85516100  0.07142750  0.94885200  1
  C  2619  1  0.82165000  0.09833450  0.96968700  1
  C  2621  1  0.85379100  0.10152600  0.95608600  1
  C  2622  1  0.80601000  0.08127650  0.97244100  1
  C  2623  1  0.82268300  0.06760050  0.96214700  1
  C  2624  1  0.80802400  0.05040450  0.96464300  1
  C  2625  1  0.82508300  0.03718150  0.95394300  1
  C  2629  1  0.95700700  0.05624450  0.90223600  1
  C  2633  1  0.87064000  0.11891400  0.95123900  1
  C  2637  1  0.80442300  0.11155700  0.98048300  1
  C  2638  1  0.91875700  0.01921150  0.90396000  1
  C  2641  1  0.84304500  0.87210400  0.47434000  1
  C  2642  1  0.82755900  0.87069400  0.45695600  1
  C  2644  1  0.87661500  0.89438600  0.44847000  1
  C  2645  1  0.89192600  0.89679600  0.46567400  1
  C  2646  1  0.87472400  0.88553500  0.47846400  1
  C  2648  1  0.89381700  0.90506100  0.43519500  1
  C  2649  1  0.92724800  0.92590900  0.40828300  1
  C  2651  1  0.89499100  0.91234000  0.40510700  1
  C  2652  1  0.94305600  0.92861500  0.42532800  1
  C  2653  1  0.92642500  0.91831600  0.43900600  1
  C  2654  1  0.94124100  0.92077000  0.45619100  1
  C  2655  1  0.92421400  0.91006400  0.46941500  1
  C  2659  1  0.79171200  0.85853300  0.45041200  1
  C  2663  1  0.87797800  0.90752700  0.38773200  1
  C  2667  1  0.94445700  0.93670800  0.39505900  1
  C  2668  1  0.83022500  0.86015800  0.48740100  1
  C  2671  1  0.34294800  0.09064550  0.57606400  1
  C  2672  1  0.32746200  0.09203250  0.59344800  1
  C  2674  1  0.37655000  0.06833850  0.60190900  1
  C  2675  1  0.39185100  0.06594750  0.58470000  1
  C  2676  1  0.37462400  0.07721750  0.57192200  1
  C  2678  1  0.39376000  0.05764950  0.61517000  1
  C  2679  1  0.42718300  0.03676150  0.64205400  1
  C  2681  1  0.39495000  0.05033450  0.64524900  1
  C  2682  1  0.44299400  0.03407850  0.62500400  1
  C  2683  1  0.42636000  0.04439650  0.61134000  1
  C  2684  1  0.44117300  0.04196550  0.59415100  1
  C  2685  1  0.42413900  0.05268650  0.58094200  1
  C  2689  1  0.29165100  0.10419700  0.60001200  1
  C  2693  1  0.37793100  0.05512050  0.66263100  1
  C  2697  1  0.44441600  0.02594450  0.65525900  1
  C  2698  1  0.33007300  0.10259800  0.56301100  1
  C  2701  1  0.09102500  0.03240350  0.41597000  1
  C  2702  1  0.07526700  0.04976450  0.41471500  1
  C  2704  1  0.12448400  0.05817550  0.43839000  1
  C  2705  1  0.14004400  0.04098150  0.44065700  1
  C  2706  1  0.12287700  0.02823950  0.42933400  1
  C  2708  1  0.14168600  0.07140850  0.44911700  1
  C  2709  1  0.17523600  0.09824650  0.47003300  1
  C  2711  1  0.14272900  0.10146000  0.45655400  1
  C  2712  1  0.19121200  0.08120250  0.47261900  1
  C  2713  1  0.17453600  0.06756150  0.46228100  1
  C  2714  1  0.18958200  0.05038650  0.46459700  1
  C  2715  1  0.17255600  0.03720550  0.45383900  1
  C  2719  1  0.03920600  0.05632750  0.40265100  1
  C  2723  1  0.12554100  0.11884400  0.45186300  1
  C  2727  1  0.19268500  0.11143700  0.48081900  1
  C  2728  1  0.07835400  0.01940750  0.40393100  1
  C  2731  1  0.59088800  0.93026200  0.63444600  1
  C  2732  1  0.57526900  0.91288600  0.63574700  1
  C  2734  1  0.62434600  0.90449000  0.61202800  1
  C  2735  1  0.63973800  0.92169800  0.60971000  1
  C  2736  1  0.62255300  0.93444200  0.62102600  1
  C  2738  1  0.64158000  0.89125600  0.60130800  1
  C  2739  1  0.67521000  0.86442000  0.58040700  1
  C  2741  1  0.64282300  0.86119400  0.59392200  1
  C  2742  1  0.69101800  0.88147700  0.57777500  1
  C  2743  1  0.67429600  0.89511700  0.58810200  1
  C  2744  1  0.68916500  0.91230600  0.58573400  1
  C  2745  1  0.67210700  0.92548700  0.59648500  1
  C  2749  1  0.53937300  0.90630400  0.64786600  1
  C  2753  1  0.62580400  0.84379700  0.59865000  1
  C  2757  1  0.69265700  0.85123000  0.56962400  1
  C  2758  1  0.57820800  0.94326900  0.64647500  1
  C  2761  1  0.15728800  0.59057600  0.57633700  1
  C  2762  1  0.17274600  0.59187800  0.59373100  1
  C  2764  1  0.12336900  0.56823100  0.60209000  1
  C  2765  1  0.10810600  0.56591500  0.58486800  1
  C  2766  1  0.12547800  0.57721000  0.57213700  1
  C  2768  1  0.10595300  0.55753700  0.61531300  1
  C  2769  1  0.07209300  0.53665500  0.64212600  1
  C  2771  1  0.10447000  0.55016800  0.64537600  1
  C  2772  1  0.05636800  0.53402900  0.62505600  1
  C  2773  1  0.07320700  0.54434900  0.61142800  1
  C  2774  1  0.05846300  0.54198300  0.59422200  1
  C  2775  1  0.07568000  0.55271500  0.58105300  1
  C  2779  1  0.20870600  0.60395400  0.60034600  1
  C  2783  1  0.12138600  0.55491300  0.66278300  1
  C  2787  1  0.05470000  0.52583200  0.65529900  1
  C  2788  1  0.17014100  0.60260100  0.56335000  1
  C  2791  1  0.65747900  0.37215500  0.47402900  1
  C  2792  1  0.67293000  0.37088000  0.45663200  1
  C  2794  1  0.62352000  0.39453100  0.44830600  1
  C  2795  1  0.60827600  0.39682200  0.46553500  1
  C  2796  1  0.62567400  0.38551700  0.47825000  1
  C  2798  1  0.60608600  0.40524100  0.43510200  1
  C  2799  1  0.57221500  0.42616600  0.40832400  1
  C  2801  1  0.60456600  0.41265000  0.40504800  1
  C  2802  1  0.55650100  0.42876500  0.42539800  1
  C  2803  1  0.57335000  0.41842500  0.43901000  1
  C  2804  1  0.55861400  0.42076600  0.45621900  1
  C  2805  1  0.57584700  0.41001600  0.46937200  1
  C  2809  1  0.70885100  0.35880000  0.44999300  1
  C  2813  1  0.62148100  0.40793500  0.38763300  1
  C  2817  1  0.55477800  0.43700400  0.39517100  1
  C  2818  1  0.67039000  0.36011900  0.48700100  1
  C  2821  1  0.90728600  0.43023700  0.63440700  1
  C  2822  1  0.92280300  0.41284700  0.63568100  1
  C  2824  1  0.87341000  0.40449700  0.61203600  1
  C  2825  1  0.85810300  0.42171800  0.60974200  1
  C  2826  1  0.87547000  0.43444300  0.62104300  1
  C  2828  1  0.85600900  0.39128100  0.60133100  1
  C  2829  1  0.82217500  0.36448000  0.58042800  1
  C  2831  1  0.85457200  0.36122500  0.59393400  1
  C  2832  1  0.80642300  0.38154900  0.57782000  1
  C  2833  1  0.82324000  0.39517000  0.58815300  1
  C  2834  1  0.80844500  0.41237300  0.58581000  1
  C  2835  1  0.82565000  0.42553700  0.59655200  1
  C  2839  1  0.95881100  0.40623400  0.64774000  1
  C  2843  1  0.87151500  0.34381700  0.59866400  1
  C  2847  1  0.80476000  0.35131300  0.56960100  1
  C  2848  1  0.92014100  0.44322300  0.64643500  1
  C  2851  1  0.40744100  0.53259500  0.41594100  1
  C  2852  1  0.42278700  0.55000100  0.41460800  1
  C  2854  1  0.37353500  0.55833900  0.43829800  1
  C  2855  1  0.35843100  0.54110300  0.44065300  1
  C  2856  1  0.37582900  0.52837300  0.42936400  1
  C  2858  1  0.35609100  0.57155800  0.44899200  1
  C  2859  1  0.32215400  0.59835800  0.46986900  1
  C  2861  1  0.35441700  0.60162700  0.45632600  1
  C  2862  1  0.30659200  0.58127600  0.47253600  1
  C  2863  1  0.32347100  0.56765300  0.46221600  1
  C  2864  1  0.30888200  0.55043500  0.46462000  1
  C  2865  1  0.32613200  0.53727000  0.45389100  1
  C  2869  1  0.45861000  0.55663500  0.40248800  1
  C  2873  1  0.37117700  0.61904700  0.45155600  1
  C  2877  1  0.30475400  0.61152600  0.48069600  1
  C  2878  1  0.42031400  0.51959400  0.40393000  1
  N  23  1  0.16428200  0.11048700  0.03315600  1
  N  25  1  0.13194100  0.05404200  0.01012300  1
  N  27  1  0.33478200  0.11089400  0.95934700  1
  N  29  1  0.38269400  0.05841200  0.98769700  1
  N  53  1  0.66432300  0.38833000  0.96570700  1
  N  55  1  0.63192600  0.44479100  0.98869200  1
  N  57  1  0.83461000  0.38795000  0.03954400  1
  N  59  1  0.88268200  0.44042500  0.01121500  1
  N  83  1  0.41428600  0.21569900  0.86050300  1
  N  85  1  0.38181900  0.23873300  0.80407000  1
  N  87  1  0.58469200  0.28952700  0.86088400  1
  N  89  1  0.63258800  0.26118100  0.80839400  1
  N  113  1  0.91421700  0.28307400  0.13830200  1
  N  115  1  0.88184100  0.26013200  0.19478200  1
  N  117  1  0.08464700  0.20928900  0.13797600  1
  N  119  1  0.13265700  0.23766900  0.19042800  1
  N  143  1  0.83329000  0.88841700  0.96554100  1
  N  145  1  0.86659700  0.94481900  0.98843100  1
  N  147  1  0.66571800  0.88796300  0.03999500  1
  N  149  1  0.61584500  0.94028700  0.01186400  1
  N  173  1  0.33326400  0.61048000  0.03325000  1
  N  175  1  0.36657800  0.55403700  0.01046200  1
  N  177  1  0.16589300  0.61087600  0.95878000  1
  N  179  1  0.11583200  0.55857800  0.98692300  1
  N  203  1  0.58470600  0.78290800  0.13830400  1
  N  205  1  0.61678400  0.75996500  0.19479800  1
  N  207  1  0.41380200  0.70922100  0.13794200  1
  N  209  1  0.36607400  0.73760800  0.19042800  1
  N  233  1  0.08482200  0.71601600  0.86055700  1
  N  235  1  0.11680100  0.73890800  0.80403300  1
  N  237  1  0.91381100  0.78964500  0.86088200  1
  N  239  1  0.86597700  0.76120800  0.80844300  1
  N  263  1  0.66406100  0.61051300  0.53289600  1
  N  265  1  0.63210200  0.55400500  0.50996000  1
  N  267  1  0.83507600  0.61090600  0.45923700  1
  N  269  1  0.88281900  0.55843400  0.48763400  1
  N  293  1  0.16408600  0.88828900  0.46598000  1
  N  295  1  0.13205500  0.94480900  0.48887100  1
  N  297  1  0.33498700  0.88795300  0.53964400  1
  N  299  1  0.38279200  0.94042100  0.51124600  1
  N  323  1  0.91557700  0.71557300  0.36046400  1
  N  325  1  0.88210400  0.73844800  0.30407100  1
  N  327  1  0.08304700  0.79003900  0.36087000  1
  N  329  1  0.13288700  0.76191300  0.30853300  1
  N  353  1  0.41554000  0.78320300  0.63833100  1
  N  355  1  0.38206700  0.76039400  0.69475200  1
  N  357  1  0.58304500  0.70878000  0.63799000  1
  N  359  1  0.63291400  0.73692600  0.69031000  1
  N  383  1  0.33349800  0.38838600  0.46579600  1
  N  385  1  0.36653600  0.44481500  0.48865400  1
  N  387  1  0.16537200  0.38794600  0.54010000  1
  N  389  1  0.11572500  0.44027200  0.51192600  1
  N  413  1  0.83350700  0.11051200  0.53299500  1
  N  415  1  0.86642900  0.05400800  0.51029800  1
  N  417  1  0.66554900  0.11088500  0.45868900  1
  N  419  1  0.61573000  0.05858100  0.48687200  1
  N  443  1  0.08344900  0.28303900  0.63836300  1
  N  445  1  0.11650900  0.26023000  0.69481000  1
  N  447  1  0.91545000  0.20871400  0.63795400  1
  N  449  1  0.86577400  0.23687800  0.69028900  1
  N  473  1  0.58351100  0.21588400  0.36053100  1
  N  475  1  0.61640200  0.23856600  0.30401700  1
  N  477  1  0.41545900  0.29016100  0.36086600  1
  N  479  1  0.36568100  0.26195000  0.30857500  1
  N  483  1  0.06052300  0.00465600  0.00439400  1
  N  490  1  0.99766700  0.97706300  0.00705900  1
  N  513  1  0.56051900  0.49418000  0.99449500  1
  N  520  1  0.49772500  0.52179800  0.99187100  1
  N  543  1  0.31043600  0.24443800  0.75468100  1
  N  550  1  0.24759400  0.24172400  0.72708600  1
  N  573  1  0.81039200  0.25440800  0.24416200  1
  N  580  1  0.74755300  0.25709200  0.27176000  1
  N  603  1  0.94274000  0.49197400  0.00732000  1
  N  610  1  0.00209600  0.52067100  0.00954400  1
  N  633  1  0.44270700  0.00687400  0.99155400  1
  N  640  1  0.50212800  0.97820200  0.98928100  1
  N  663  1  0.69265000  0.25729000  0.75685400  1
  N  670  1  0.75207100  0.25952100  0.72817800  1
  N  693  1  0.19266900  0.24156400  0.24196600  1
  N  700  1  0.25204300  0.23931800  0.27065600  1
  N  723  1  0.68819800  0.75430100  0.24420000  1
  N  730  1  0.75104500  0.75700500  0.27179600  1
  N  753  1  0.18814900  0.74455400  0.75461800  1
  N  760  1  0.25101500  0.74184200  0.72703000  1
  N  783  1  0.30609300  0.74151500  0.24197700  1
  N  790  1  0.24667800  0.73928700  0.27065600  1
  N  813  1  0.80604900  0.75729100  0.75689800  1
  N  820  1  0.74666300  0.75953300  0.72821100  1
  N  843  1  0.56057200  0.50463200  0.50438300  1
  N  850  1  0.49762000  0.47707800  0.50716000  1
  N  873  1  0.06056100  0.99419100  0.49454700  1
  N  880  1  0.99767800  0.02177400  0.49182700  1
  N  903  1  0.44273500  0.99197300  0.50732100  1
  N  910  1  0.50209300  0.02066900  0.50953100  1
  N  933  1  0.94276900  0.50689200  0.49153400  1
  N  940  1  0.00215800  0.47820900  0.48928800  1
  N  963  1  0.34426900  0.14981400  0.91937500  1
  N  970  1  0.37866600  0.17080000  0.89292900  1
  N  993  1  0.84409600  0.34898800  0.07947100  1
  N  1000  1  0.87853100  0.32797700  0.10589300  1
  N  1023  1  0.59421900  0.32945300  0.89983600  1
  N  1030  1  0.62862000  0.35589300  0.92082800  1
  N  1053  1  0.09419200  0.16930400  0.09908200  1
  N  1060  1  0.12865600  0.14287000  0.07809300  1
  N  1083  1  0.65586100  0.84884100  0.07970800  1
  N  1090  1  0.62098000  0.82782800  0.10604400  1
  N  1113  1  0.15605600  0.65003600  0.91910300  1
  N  1120  1  0.12115600  0.67107900  0.89279100  1
  N  1143  1  0.40363400  0.66928100  0.09904000  1
  N  1150  1  0.36881300  0.64288200  0.07809600  1
  N  1173  1  0.90362900  0.82966300  0.89970600  1
  N  1180  1  0.86874500  0.85606400  0.92063800  1
  N  1203  1  0.84524500  0.64977700  0.41925500  1
  N  1210  1  0.88008000  0.67071000  0.39285100  1
  N  1233  1  0.34517300  0.84904900  0.57959400  1
  N  1240  1  0.38003600  0.82808600  0.60597300  1
  N  1263  1  0.09291800  0.82970300  0.40003100  1
  N  1270  1  0.12777300  0.85603000  0.42106100  1
  N  1293  1  0.59292300  0.66905500  0.59888700  1
  N  1300  1  0.62782500  0.64272900  0.57786300  1
  N  1323  1  0.15488200  0.34887700  0.57983200  1
  N  1330  1  0.11959000  0.32792100  0.60613300  1
  N  1353  1  0.65503400  0.14999600  0.41900100  1
  N  1360  1  0.61970500  0.17098600  0.39273200  1
  N  1383  1  0.90495300  0.16903400  0.59884700  1
  N  1390  1  0.86968000  0.14274400  0.57787100  1
  N  1413  1  0.40492300  0.32992200  0.39989500  1
  N  1420  1  0.36958000  0.35621400  0.42085500  1
  N  1463  1  0.16428200  0.34243400  0.05892780  1
  N  1465  1  0.13194100  0.28598900  0.03589480  1
  N  1467  1  0.33478200  0.34284100  0.98511900  1
  N  1469  1  0.38269400  0.29035900  0.01346880  1
  N  1493  1  0.66432300  0.62027700  0.99147900  1
  N  1495  1  0.63192600  0.67673800  0.01446380  1
  N  1497  1  0.83461000  0.61989700  0.06531580  1
  N  1499  1  0.88268200  0.67237200  0.03698680  1
  N  1523  1  0.41428600  0.44764600  0.88627500  1
  N  1525  1  0.38181900  0.47068000  0.82984200  1
  N  1527  1  0.58469200  0.52147400  0.88665600  1
  N  1529  1  0.63258800  0.49312800  0.83416600  1
  N  1553  1  0.91421700  0.51502100  0.16407400  1
  N  1555  1  0.88184100  0.49207900  0.22055400  1
  N  1557  1  0.08464700  0.44123600  0.16374800  1
  N  1559  1  0.13265700  0.46961600  0.21620000  1
  N  1583  1  0.83329000  0.12036400  0.99131300  1
  N  1585  1  0.86659700  0.17676600  0.01420280  1
  N  1587  1  0.66571800  0.11991000  0.06576680  1
  N  1589  1  0.61584500  0.17223400  0.03763580  1
  N  1613  1  0.33326400  0.84242700  0.05902180  1
  N  1615  1  0.36657800  0.78598400  0.03623380  1
  N  1617  1  0.16589300  0.84282300  0.98455200  1
  N  1619  1  0.11583200  0.79052500  0.01269480  1
  N  1643  1  0.58470600  0.01485450  0.16407600  1
  N  1645  1  0.61678400  0.99191200  0.22057000  1
  N  1647  1  0.41380200  0.94116800  0.16371400  1
  N  1649  1  0.36607400  0.96955500  0.21620000  1
  N  1673  1  0.08482200  0.94796300  0.88632900  1
  N  1675  1  0.11680100  0.97085500  0.82980500  1
  N  1677  1  0.91381100  0.02159150  0.88665400  1
  N  1679  1  0.86597700  0.99315500  0.83421500  1
  N  1703  1  0.66406100  0.84246000  0.55866800  1
  N  1705  1  0.63210200  0.78595200  0.53573200  1
  N  1707  1  0.83507600  0.84285300  0.48500900  1
  N  1709  1  0.88281900  0.79038100  0.51340600  1
  N  1733  1  0.16408600  0.12023600  0.49175200  1
  N  1735  1  0.13205500  0.17675600  0.51464300  1
  N  1737  1  0.33498700  0.11990000  0.56541600  1
  N  1739  1  0.38279200  0.17236800  0.53701800  1
  N  1763  1  0.91557700  0.94752000  0.38623600  1
  N  1765  1  0.88210400  0.97039500  0.32984300  1
  N  1767  1  0.08304700  0.02198550  0.38664200  1
  N  1769  1  0.13288700  0.99386000  0.33430500  1
  N  1793  1  0.41554000  0.01514950  0.66410300  1
  N  1795  1  0.38206700  0.99234100  0.72052400  1
  N  1797  1  0.58304500  0.94072700  0.66376200  1
  N  1799  1  0.63291400  0.96887300  0.71608200  1
  N  1823  1  0.33349800  0.62033300  0.49156800  1
  N  1825  1  0.36653600  0.67676200  0.51442600  1
  N  1827  1  0.16537200  0.61989300  0.56587200  1
  N  1829  1  0.11572500  0.67221900  0.53769800  1
  N  1853  1  0.83350700  0.34245900  0.55876700  1
  N  1855  1  0.86642900  0.28595500  0.53607000  1
  N  1857  1  0.66554900  0.34283200  0.48446100  1
  N  1859  1  0.61573000  0.29052800  0.51264400  1
  N  1883  1  0.08344900  0.51498600  0.66413500  1
  N  1885  1  0.11650900  0.49217700  0.72058200  1
  N  1887  1  0.91545000  0.44066100  0.66372600  1
  N  1889  1  0.86577400  0.46882500  0.71606100  1
  N  1913  1  0.58351100  0.44783100  0.38630300  1
  N  1915  1  0.61640200  0.47051300  0.32978900  1
  N  1917  1  0.41545900  0.52210800  0.38663800  1
  N  1919  1  0.36568100  0.49389700  0.33434700  1
  N  1923  1  0.06052300  0.23660300  0.03016580  1
  N  1930  1  0.99766700  0.20901000  0.03283080  1
  N  1953  1  0.56051900  0.72612700  0.02026680  1
  N  1960  1  0.49772500  0.75374500  0.01764280  1
  N  1983  1  0.31043600  0.47638500  0.78045300  1
  N  1990  1  0.24759400  0.47367100  0.75285800  1
  N  2013  1  0.81039200  0.48635500  0.26993400  1
  N  2020  1  0.74755300  0.48903900  0.29753200  1
  N  2043  1  0.94274000  0.72392100  0.03309180  1
  N  2050  1  0.00209600  0.75261800  0.03531580  1
  N  2073  1  0.44270700  0.23882100  0.01732580  1
  N  2080  1  0.50212800  0.21014900  0.01505280  1
  N  2103  1  0.69265000  0.48923700  0.78262600  1
  N  2110  1  0.75207100  0.49146800  0.75395000  1
  N  2133  1  0.19266900  0.47351100  0.26773800  1
  N  2140  1  0.25204300  0.47126500  0.29642800  1
  N  2163  1  0.68819800  0.98624800  0.26997200  1
  N  2170  1  0.75104500  0.98895200  0.29756800  1
  N  2193  1  0.18814900  0.97650100  0.78039000  1
  N  2200  1  0.25101500  0.97378900  0.75280200  1
  N  2223  1  0.30609300  0.97346200  0.26774900  1
  N  2230  1  0.24667800  0.97123400  0.29642800  1
  N  2253  1  0.80604900  0.98923800  0.78267000  1
  N  2260  1  0.74666300  0.99148000  0.75398300  1
  N  2283  1  0.56057200  0.73657900  0.53015500  1
  N  2290  1  0.49762000  0.70902500  0.53293200  1
  N  2313  1  0.06056100  0.22613800  0.52031900  1
  N  2320  1  0.99767800  0.25372100  0.51759900  1
  N  2343  1  0.44273500  0.22392000  0.53309300  1
  N  2350  1  0.50209300  0.25261600  0.53530300  1
  N  2373  1  0.94276900  0.73883900  0.51730600  1
  N  2380  1  0.00215800  0.71015600  0.51506000  1
  N  2403  1  0.34426900  0.38176100  0.94514700  1
  N  2410  1  0.37866600  0.40274700  0.91870100  1
  N  2433  1  0.84409600  0.58093500  0.10524300  1
  N  2440  1  0.87853100  0.55992400  0.13166500  1
  N  2463  1  0.59421900  0.56140000  0.92560800  1
  N  2470  1  0.62862000  0.58784000  0.94660000  1
  N  2493  1  0.09419200  0.40125100  0.12485400  1
  N  2500  1  0.12865600  0.37481700  0.10386500  1
  N  2523  1  0.65586100  0.08078750  0.10548000  1
  N  2530  1  0.62098000  0.05977450  0.13181600  1
  N  2553  1  0.15605600  0.88198300  0.94487500  1
  N  2560  1  0.12115600  0.90302600  0.91856300  1
  N  2583  1  0.40363400  0.90122800  0.12481200  1
  N  2590  1  0.36881300  0.87482900  0.10386800  1
  N  2613  1  0.90362900  0.06160950  0.92547800  1
  N  2620  1  0.86874500  0.08801050  0.94641000  1
  N  2643  1  0.84524500  0.88172400  0.44502700  1
  N  2650  1  0.88008000  0.90265700  0.41862300  1
  N  2673  1  0.34517300  0.08099550  0.60536600  1
  N  2680  1  0.38003600  0.06003250  0.63174500  1
  N  2703  1  0.09291800  0.06164950  0.42580300  1
  N  2710  1  0.12777300  0.08797650  0.44683300  1
  N  2733  1  0.59292300  0.90100200  0.62465900  1
  N  2740  1  0.62782500  0.87467600  0.60363500  1
  N  2763  1  0.15488200  0.58082400  0.60560400  1
  N  2770  1  0.11959000  0.55986800  0.63190500  1
  N  2793  1  0.65503400  0.38194300  0.44477300  1
  N  2800  1  0.61970500  0.40293300  0.41850400  1
  N  2823  1  0.90495300  0.40098100  0.62461900  1
  N  2830  1  0.86968000  0.37469100  0.60364300  1
  N  2853  1  0.40492300  0.56186900  0.42566700  1
  N  2860  1  0.36958000  0.58816100  0.44662700  1
  O  8  1  0.40098900  0.08552500  0.96527200  1
  O  15  1  0.10808300  0.08139200  0.03122300  1
  O  17  1  0.24862400  0.10926300  0.97672400  1
  O  18  1  0.21429000  0.05516800  0.99113700  1
  O  38  1  0.90086100  0.41331400  0.03365500  1
  O  45  1  0.60810400  0.41742200  0.96760600  1
  O  47  1  0.74849500  0.38960500  0.02213600  1
  O  48  1  0.71425900  0.44369200  0.00768400  1
  O  68  1  0.65088000  0.28361900  0.83550300  1
  O  75  1  0.35803500  0.21762900  0.83142300  1
  O  77  1  0.49854100  0.27214800  0.85925700  1
  O  78  1  0.46415800  0.25773000  0.80517600  1
  O  98  1  0.15089200  0.21522600  0.16332900  1
  O  105  1  0.85799100  0.28118700  0.16739300  1
  O  107  1  0.99845500  0.22665000  0.13963700  1
  O  108  1  0.96420500  0.24115600  0.19370200  1
  O  128  1  0.59890600  0.91319100  0.03441600  1
  O  135  1  0.88974400  0.91746400  0.96723300  1
  O  137  1  0.75125500  0.88981500  0.02221700  1
  O  138  1  0.78509200  0.94383900  0.00772900  1
  O  158  1  0.09902100  0.58566100  0.96434000  1
  O  165  1  0.38970700  0.58142800  0.03161900  1
  O  167  1  0.25139700  0.60899700  0.97658100  1
  O  168  1  0.28509500  0.55499000  0.99114800  1
  O  188  1  0.34766000  0.71518000  0.16332500  1
  O  195  1  0.64079200  0.78100200  0.16742300  1
  O  197  1  0.50004400  0.72654900  0.13956100  1
  O  198  1  0.53440900  0.74099500  0.19366600  1
  O  218  1  0.84760500  0.78364000  0.83553400  1
  O  225  1  0.14089100  0.71791100  0.83143000  1
  O  227  1  0.00011300  0.77234800  0.85922900  1
  O  228  1  0.03434500  0.75783600  0.80514600  1
  O  248  1  0.90124700  0.58554200  0.46522400  1
  O  255  1  0.60802400  0.58138000  0.53098700  1
  O  257  1  0.74881400  0.60928100  0.47655100  1
  O  258  1  0.71447200  0.55515900  0.49099100  1
  O  278  1  0.40116400  0.91332100  0.53367500  1
  O  285  1  0.10801000  0.91741400  0.46786200  1
  O  287  1  0.24873700  0.88958800  0.52231700  1
  O  288  1  0.21442900  0.94368900  0.50783500  1
  O  308  1  0.14983100  0.78448000  0.33562500  1
  O  315  1  0.85905900  0.71725300  0.33143500  1
  O  317  1  0.99752000  0.77225400  0.35902500  1
  O  318  1  0.96362400  0.75775300  0.30501700  1
  O  338  1  0.64984600  0.71436000  0.66322400  1
  O  345  1  0.35899800  0.78154700  0.66735700  1
  O  347  1  0.49747600  0.72654600  0.63985400  1
  O  348  1  0.46362600  0.74111100  0.69383900  1
  O  368  1  0.09862200  0.41317900  0.53446100  1
  O  375  1  0.38985000  0.41745500  0.46750500  1
  O  377  1  0.25101900  0.38977900  0.52238600  1
  O  378  1  0.28493700  0.44381900  0.50791100  1
  O  398  1  0.59874500  0.08566200  0.46431000  1
  O  405  1  0.88979600  0.08142200  0.53138000  1
  O  407  1  0.75116700  0.10902200  0.47642300  1
  O  408  1  0.78491000  0.05498600  0.49100900  1
  O  428  1  0.84870500  0.21432500  0.66319900  1
  O  435  1  0.13979500  0.28136800  0.66743300  1
  O  437  1  0.00107200  0.22644500  0.63979300  1
  O  438  1  0.03494600  0.24095600  0.69382600  1
  O  458  1  0.34865800  0.28451300  0.33565000  1
  O  465  1  0.63980100  0.21749700  0.33144100  1
  O  467  1  0.50111900  0.27245100  0.35900000  1
  O  468  1  0.53483700  0.25782800  0.30498400  1
  O  509  1  0.88754700  0.94066200  0.01746800  1
  O  510  1  0.11316500  0.05697700  0.98075600  1
  O  539  1  0.38763300  0.55819800  0.98143600  1
  O  540  1  0.61311700  0.44181500  0.01804700  1
  O  569  1  0.13750600  0.23119600  0.69070200  1
  O  570  1  0.36301200  0.26809900  0.80700500  1
  O  599  1  0.63740100  0.26760700  0.30811500  1
  O  600  1  0.86307700  0.23076200  0.19185100  1
  O  629  1  0.11198300  0.55803100  0.01726200  1
  O  630  1  0.88500100  0.44183000  0.98092100  1
  O  659  1  0.61208700  0.94086900  0.98152200  1
  O  660  1  0.38488700  0.05698100  0.01800200  1
  O  689  1  0.86203000  0.26722000  0.69083400  1
  O  690  1  0.63484800  0.23087900  0.80698100  1
  O  719  1  0.36196100  0.23160600  0.30802000  1
  O  720  1  0.13486300  0.26797400  0.19183600  1
  O  749  1  0.86112600  0.76748000  0.30820000  1
  O  750  1  0.63558300  0.73060800  0.19189200  1
  O  779  1  0.36115200  0.73135100  0.69065100  1
  O  780  1  0.13548800  0.76828800  0.80689100  1
  O  809  1  0.13673400  0.73157200  0.30799500  1
  O  810  1  0.36389800  0.76791000  0.19184000  1
  O  839  1  0.63673900  0.76726600  0.69086400  1
  O  840  1  0.86389700  0.73090200  0.80703400  1
  O  869  1  0.38743400  0.44072500  0.51770000  1
  O  870  1  0.61330900  0.55687700  0.48058800  1
  O  899  1  0.88750500  0.05811200  0.48126400  1
  O  900  1  0.11325800  0.94189400  0.51823400  1
  O  929  1  0.61199900  0.05803300  0.51721500  1
  O  930  1  0.38492900  0.94183100  0.48094000  1
  O  959  1  0.11210700  0.44085800  0.48158400  1
  O  960  1  0.88486100  0.55700900  0.51794000  1
  O  989  1  0.48876100  0.20288200  0.86509600  1
  O  990  1  0.32138000  0.13441600  0.97776700  1
  O  1019  1  0.98863000  0.29593900  0.13372000  1
  O  1020  1  0.82117700  0.36442500  0.02110200  1
  O  1049  1  0.73876800  0.38373100  0.95287100  1
  O  1050  1  0.57131500  0.27107300  0.88440000  1
  O  1079  1  0.23875800  0.11509100  0.04597600  1
  O  1080  1  0.07099000  0.22769100  0.11444500  1
  O  1109  1  0.51034900  0.79579500  0.13366000  1
  O  1110  1  0.67874100  0.86456900  0.02137600  1
  O  1139  1  0.01053900  0.70306400  0.86517800  1
  O  1140  1  0.17898500  0.63427700  0.97741000  1
  O  1169  1  0.25862200  0.61516800  0.04589500  1
  O  1170  1  0.42729500  0.72764700  0.11441400  1
  O  1199  1  0.75860000  0.88372000  0.95292500  1
  O  1200  1  0.92762600  0.77128600  0.88443300  1
  O  1229  1  0.99024800  0.70294600  0.36514300  1
  O  1230  1  0.82155200  0.63444000  0.47762900  1
  O  1259  1  0.49015200  0.79588700  0.63368400  1
  O  1260  1  0.32141300  0.86441000  0.52124300  1
  O  1289  1  0.23841300  0.88365600  0.45306500  1
  O  1290  1  0.07005800  0.77138300  0.38425700  1
  O  1319  1  0.73842800  0.61515800  0.54578500  1
  O  1320  1  0.56980800  0.72738400  0.61458600  1
  O  1349  1  0.00889800  0.29574200  0.63363800  1
  O  1350  1  0.17850500  0.36453700  0.52151200  1
  O  1379  1  0.50902800  0.20312600  0.36524300  1
  O  1380  1  0.67874800  0.13429800  0.47729300  1
  O  1409  1  0.75898200  0.11523600  0.54572000  1
  O  1410  1  0.92856500  0.22734000  0.61455500  1
  O  1439  1  0.25893000  0.38366800  0.45309300  1
  O  1440  1  0.42886400  0.27160100  0.38429100  1
  O  1448  1  0.40098900  0.31747200  0.99104400  1
  O  1455  1  0.10808300  0.31333900  0.05699480  1
  O  1457  1  0.24862400  0.34121000  0.00249583  1
  O  1458  1  0.21429000  0.28711500  0.01690880  1
  O  1478  1  0.90086100  0.64526100  0.05942680  1
  O  1485  1  0.60810400  0.64936900  0.99337800  1
  O  1487  1  0.74849500  0.62155200  0.04790780  1
  O  1488  1  0.71425900  0.67563900  0.03345580  1
  O  1508  1  0.65088000  0.51556600  0.86127500  1
  O  1515  1  0.35803500  0.44957600  0.85719500  1
  O  1517  1  0.49854100  0.50409500  0.88502900  1
  O  1518  1  0.46415800  0.48967700  0.83094800  1
  O  1538  1  0.15089200  0.44717300  0.18910100  1
  O  1545  1  0.85799100  0.51313400  0.19316500  1
  O  1547  1  0.99845500  0.45859700  0.16540900  1
  O  1548  1  0.96420500  0.47310300  0.21947400  1
  O  1568  1  0.59890600  0.14513800  0.06018780  1
  O  1575  1  0.88974400  0.14941100  0.99300500  1
  O  1577  1  0.75125500  0.12176200  0.04798880  1
  O  1578  1  0.78509200  0.17578600  0.03350080  1
  O  1598  1  0.09902100  0.81760800  0.99011200  1
  O  1605  1  0.38970700  0.81337500  0.05739080  1
  O  1607  1  0.25139700  0.84094400  0.00235283  1
  O  1608  1  0.28509500  0.78693700  0.01691980  1
  O  1628  1  0.34766000  0.94712700  0.18909700  1
  O  1635  1  0.64079200  0.01294850  0.19319500  1
  O  1637  1  0.50004400  0.95849600  0.16533300  1
  O  1638  1  0.53440900  0.97294200  0.21943800  1
  O  1658  1  0.84760500  0.01558650  0.86130600  1
  O  1665  1  0.14089100  0.94985800  0.85720200  1
  O  1667  1  0.00011300  0.00429451  0.88500100  1
  O  1668  1  0.03434500  0.98978300  0.83091800  1
  O  1688  1  0.90124700  0.81748900  0.49099600  1
  O  1695  1  0.60802400  0.81332700  0.55675900  1
  O  1697  1  0.74881400  0.84122800  0.50232300  1
  O  1698  1  0.71447200  0.78710600  0.51676300  1
  O  1718  1  0.40116400  0.14526800  0.55944700  1
  O  1725  1  0.10801000  0.14936100  0.49363400  1
  O  1727  1  0.24873700  0.12153500  0.54808900  1
  O  1728  1  0.21442900  0.17563600  0.53360700  1
  O  1748  1  0.14983100  0.01642650  0.36139700  1
  O  1755  1  0.85905900  0.94920000  0.35720700  1
  O  1757  1  0.99752000  0.00420051  0.38479700  1
  O  1758  1  0.96362400  0.98970000  0.33078900  1
  O  1778  1  0.64984600  0.94630700  0.68899600  1
  O  1785  1  0.35899800  0.01349350  0.69312900  1
  O  1787  1  0.49747600  0.95849300  0.66562600  1
  O  1788  1  0.46362600  0.97305800  0.71961100  1
  O  1808  1  0.09862200  0.64512600  0.56023300  1
  O  1815  1  0.38985000  0.64940200  0.49327700  1
  O  1817  1  0.25101900  0.62172600  0.54815800  1
  O  1818  1  0.28493700  0.67576600  0.53368300  1
  O  1838  1  0.59874500  0.31760900  0.49008200  1
  O  1845  1  0.88979600  0.31336900  0.55715200  1
  O  1847  1  0.75116700  0.34096900  0.50219500  1
  O  1848  1  0.78491000  0.28693300  0.51678100  1
  O  1868  1  0.84870500  0.44627200  0.68897100  1
  O  1875  1  0.13979500  0.51331500  0.69320500  1
  O  1877  1  0.00107200  0.45839200  0.66556500  1
  O  1878  1  0.03494600  0.47290300  0.71959800  1
  O  1898  1  0.34865800  0.51646000  0.36142200  1
  O  1905  1  0.63980100  0.44944400  0.35721300  1
  O  1907  1  0.50111900  0.50439800  0.38477200  1
  O  1908  1  0.53483700  0.48977500  0.33075600  1
  O  1949  1  0.88754700  0.17260900  0.04323980  1
  O  1950  1  0.11316500  0.28892400  0.00652783  1
  O  1979  1  0.38763300  0.79014500  0.00720783  1
  O  1980  1  0.61311700  0.67376200  0.04381880  1
  O  2009  1  0.13750600  0.46314300  0.71647400  1
  O  2010  1  0.36301200  0.50004600  0.83277700  1
  O  2039  1  0.63740100  0.49955400  0.33388700  1
  O  2040  1  0.86307700  0.46270900  0.21762300  1
  O  2069  1  0.11198300  0.78997800  0.04303380  1
  O  2070  1  0.88500100  0.67377700  0.00669283  1
  O  2099  1  0.61208700  0.17281600  0.00729383  1
  O  2100  1  0.38488700  0.28892800  0.04377380  1
  O  2129  1  0.86203000  0.49916700  0.71660600  1
  O  2130  1  0.63484800  0.46282600  0.83275300  1
  O  2159  1  0.36196100  0.46355300  0.33379200  1
  O  2160  1  0.13486300  0.49992100  0.21760800  1
  O  2189  1  0.86112600  0.99942700  0.33397200  1
  O  2190  1  0.63558300  0.96255500  0.21766400  1
  O  2219  1  0.36115200  0.96329800  0.71642300  1
  O  2220  1  0.13548800  0.00023451  0.83266300  1
  O  2249  1  0.13673400  0.96351900  0.33376700  1
  O  2250  1  0.36389800  0.99985700  0.21761200  1
  O  2279  1  0.63673900  0.99921300  0.71663600  1
  O  2280  1  0.86389700  0.96284900  0.83280600  1
  O  2309  1  0.38743400  0.67267200  0.54347200  1
  O  2310  1  0.61330900  0.78882400  0.50636000  1
  O  2339  1  0.88750500  0.29005900  0.50703600  1
  O  2340  1  0.11325800  0.17384100  0.54400600  1
  O  2369  1  0.61199900  0.28998000  0.54298700  1
  O  2370  1  0.38492900  0.17377800  0.50671200  1
  O  2399  1  0.11210700  0.67280500  0.50735600  1
  O  2400  1  0.88486100  0.78895600  0.54371200  1
  O  2429  1  0.48876100  0.43482900  0.89086800  1
  O  2430  1  0.32138000  0.36636300  0.00353883  1
  O  2459  1  0.98863000  0.52788600  0.15949200  1
  O  2460  1  0.82117700  0.59637200  0.04687380  1
  O  2489  1  0.73876800  0.61567800  0.97864300  1
  O  2490  1  0.57131500  0.50302000  0.91017200  1
  O  2519  1  0.23875800  0.34703800  0.07174780  1
  O  2520  1  0.07099000  0.45963800  0.14021700  1
  O  2549  1  0.51034900  0.02774150  0.15943200  1
  O  2550  1  0.67874100  0.09651550  0.04714780  1
  O  2579  1  0.01053900  0.93501100  0.89095000  1
  O  2580  1  0.17898500  0.86622400  0.00318183  1
  O  2609  1  0.25862200  0.84711500  0.07166680  1
  O  2610  1  0.42729500  0.95959400  0.14018600  1
  O  2639  1  0.75860000  0.11566700  0.97869700  1
  O  2640  1  0.92762600  0.00323251  0.91020500  1
  O  2669  1  0.99024800  0.93489300  0.39091500  1
  O  2670  1  0.82155200  0.86638700  0.50340100  1
  O  2699  1  0.49015200  0.02783350  0.65945600  1
  O  2700  1  0.32141300  0.09635650  0.54701500  1
  O  2729  1  0.23841300  0.11560300  0.47883700  1
  O  2730  1  0.07005800  0.00332951  0.41002900  1
  O  2759  1  0.73842800  0.84710500  0.57155700  1
  O  2760  1  0.56980800  0.95933100  0.64035800  1
  O  2789  1  0.00889800  0.52768900  0.65941000  1
  O  2790  1  0.17850500  0.59648400  0.54728400  1
  O  2819  1  0.50902800  0.43507300  0.39101500  1
  O  2820  1  0.67874800  0.36624500  0.50306500  1
  O  2849  1  0.75898200  0.34718300  0.57149200  1
  O  2850  1  0.92856500  0.45928700  0.64032700  1
  O  2879  1  0.25893000  0.61561500  0.47886500  1
  O  2880  1  0.42886400  0.50354800  0.41006300  1
