# generated using pymatgen
data_H14C20N7O4
_symmetry_space_group_name_H-M   'P 1'
_cell_length_a   49.21150000
_cell_length_b   77.03580000
_cell_length_c   77.03580000
_cell_angle_alpha   90.00000000
_cell_angle_beta   90.00000000
_cell_angle_gamma   90.00000000
_symmetry_Int_Tables_number   1
_chemical_formula_structural   H14C20N7O4
_chemical_formula_sum   'H896 C1280 N448 O256'
_cell_volume   292046.35941323
_cell_formula_units_Z   64
loop_
 _symmetry_equiv_pos_site_id
 _symmetry_equiv_pos_as_xyz
  1  'x, y, z'
loop_
 _atom_site_type_symbol
 _atom_site_label
 _atom_site_symmetry_multiplicity
 _atom_site_fract_x
 _atom_site_fract_y
 _atom_site_fract_z
 _atom_site_occupancy
  H  7  1  0.07886200  0.13547600  0.28816100  1
  H  16  1  0.14246800  0.09603000  0.29465000  1
  H  17  1  0.10987700  0.07625400  0.23072100  1
  H  18  1  0.13984500  0.07119800  0.23869200  1
  H  19  1  0.08228700  0.14089600  0.35785600  1
  H  20  1  0.06862900  0.15575600  0.34524500  1
  H  21  1  0.11442100  0.09733900  0.31987000  1
  H  22  1  0.06696500  0.11009100  0.27341100  1
  H  27  1  0.17377100  0.07829600  0.26251600  1
  H  28  1  0.09552500  0.10951200  0.35850800  1
  H  29  1  0.06426600  0.16462400  0.30542400  1
  H  30  1  0.05538800  0.09282400  0.24312600  1
  H  37  1  0.07888900  0.86280100  0.78931700  1
  H  46  1  0.14247500  0.90225000  0.78280100  1
  H  47  1  0.10982600  0.92212500  0.84668600  1
  H  48  1  0.13979400  0.92717600  0.83871400  1
  H  49  1  0.08232900  0.85733300  0.71961900  1
  H  50  1  0.06869400  0.84247100  0.73224000  1
  H  51  1  0.11441300  0.90093000  0.75757900  1
  H  52  1  0.06697000  0.88819800  0.80404200  1
  H  57  1  0.17379500  0.91996000  0.81489600  1
  H  58  1  0.09554400  0.88873500  0.71895700  1
  H  59  1  0.06433500  0.83365000  0.77211000  1
  H  60  1  0.05530500  0.90538700  0.83425700  1
  H  67  1  0.07862200  0.74973900  0.17538100  1
  H  76  1  0.14184800  0.74330800  0.13575900  1
  H  77  1  0.10764900  0.80654700  0.11491900  1
  H  78  1  0.13771100  0.79873000  0.10985900  1
  H  79  1  0.08292200  0.68009100  0.18125100  1
  H  80  1  0.06941100  0.69273700  0.19613500  1
  H  81  1  0.11395500  0.71793200  0.13724800  1
  H  82  1  0.06615400  0.76420000  0.14991200  1
  H  87  1  0.17299300  0.77484500  0.11830700  1
  H  88  1  0.09537900  0.67937700  0.14962900  1
  H  89  1  0.06409000  0.73332400  0.20431800  1
  H  90  1  0.05308800  0.79353000  0.13383000  1
  H  97  1  0.07860500  0.24845100  0.90219100  1
  H  106  1  0.14227000  0.25496000  0.94157800  1
  H  107  1  0.10865000  0.19156700  0.96234300  1
  H  108  1  0.13870000  0.19944600  0.96732600  1
  H  109  1  0.08231400  0.31811600  0.89643000  1
  H  110  1  0.06855300  0.30545800  0.88164600  1
  H  111  1  0.11438700  0.28028700  0.94013900  1
  H  112  1  0.06656100  0.23393000  0.92767200  1
  H  117  1  0.17340500  0.22310400  0.95920600  1
  H  118  1  0.09545700  0.31876500  0.92796600  1
  H  119  1  0.06416400  0.26588400  0.87284100  1
  H  120  1  0.05382700  0.20454000  0.94386000  1
  H  127  1  0.80180000  0.86283000  0.28816400  1
  H  136  1  0.73819300  0.90227800  0.29465000  1
  H  137  1  0.77079100  0.92205400  0.23072300  1
  H  138  1  0.74082200  0.92711100  0.23869200  1
  H  139  1  0.79836600  0.85740800  0.35785700  1
  H  140  1  0.81202300  0.84254800  0.34524600  1
  H  141  1  0.76623500  0.90096600  0.31987100  1
  H  142  1  0.81369800  0.88821500  0.27341300  1
  H  147  1  0.70689300  0.92001400  0.26251700  1
  H  148  1  0.78512500  0.88879100  0.35851000  1
  H  149  1  0.81639200  0.83368300  0.30542400  1
  H  150  1  0.82527600  0.90548100  0.24312900  1
  H  157  1  0.80180600  0.13560600  0.78937500  1
  H  166  1  0.73821900  0.09616400  0.78287000  1
  H  167  1  0.77115500  0.07598100  0.84659900  1
  H  168  1  0.74116600  0.07095400  0.83864900  1
  H  169  1  0.79830700  0.14109900  0.71968000  1
  H  170  1  0.81194600  0.15595900  0.73230000  1
  H  171  1  0.76627000  0.09748500  0.75763500  1
  H  172  1  0.81375900  0.11019300  0.80407200  1
  H  177  1  0.70698700  0.07837400  0.81492300  1
  H  178  1  0.78514700  0.10968300  0.71901800  1
  H  179  1  0.81637200  0.16475600  0.77218400  1
  H  180  1  0.82587400  0.09343700  0.83393900  1
  H  187  1  0.80203800  0.24856000  0.17537100  1
  H  196  1  0.73880700  0.25499500  0.13575300  1
  H  197  1  0.77301000  0.19176200  0.11489500  1
  H  198  1  0.74295000  0.19958000  0.10983500  1
  H  199  1  0.79773200  0.31820700  0.18125000  1
  H  200  1  0.81124700  0.30555800  0.19613200  1
  H  201  1  0.76670000  0.28037200  0.13724300  1
  H  202  1  0.81450200  0.23410200  0.14989900  1
  H  207  1  0.70772200  0.22339000  0.11827700  1
  H  208  1  0.78527700  0.31892300  0.14962400  1
  H  209  1  0.81657100  0.26496900  0.20430900  1
  H  210  1  0.82756600  0.20477500  0.13381300  1
  H  217  1  0.80204400  0.74983500  0.90218100  1
  H  226  1  0.73838200  0.74335000  0.94157400  1
  H  227  1  0.77202000  0.80674200  0.96232200  1
  H  228  1  0.74197000  0.79886500  0.96731200  1
  H  229  1  0.79829300  0.68016900  0.89644700  1
  H  230  1  0.81205200  0.69281700  0.88165500  1
  H  231  1  0.76625700  0.71802100  0.94014500  1
  H  232  1  0.81409000  0.76437000  0.92765200  1
  H  237  1  0.70725700  0.77521300  0.95920000  1
  H  238  1  0.78517000  0.67953600  0.92799000  1
  H  239  1  0.81649400  0.73241200  0.87285000  1
  H  240  1  0.82683500  0.79376100  0.94383000  1
  H  247  1  0.80530300  0.86063400  0.78807300  1
  H  256  1  0.74787400  0.90385400  0.78114800  1
  H  257  1  0.78677300  0.92422300  0.84339800  1
  H  258  1  0.75704800  0.93053900  0.83596500  1
  H  259  1  0.79798000  0.85344100  0.71860700  1
  H  260  1  0.81054600  0.83827800  0.73125000  1
  H  261  1  0.77360900  0.89955000  0.75567000  1
  H  262  1  0.82156000  0.88561300  0.80170800  1
  H  267  1  0.71849600  0.92293400  0.80231600  1
  H  268  1  0.78858200  0.88549700  0.71740100  1
  H  269  1  0.81589800  0.82820000  0.76046500  1
  H  270  1  0.83789900  0.90279200  0.83066400  1
  H  277  1  0.80510000  0.13779300  0.28941500  1
  H  286  1  0.74773700  0.09454300  0.29643200  1
  H  287  1  0.78642600  0.07420100  0.23412100  1
  H  288  1  0.75675800  0.06784500  0.24161400  1
  H  289  1  0.79800800  0.14499200  0.35889600  1
  H  290  1  0.81054400  0.16015300  0.34624000  1
  H  291  1  0.77353200  0.09888000  0.32187100  1
  H  292  1  0.82132400  0.11282400  0.27576000  1
  H  297  1  0.71830300  0.07543300  0.27524600  1
  H  298  1  0.78854300  0.11296900  0.36012900  1
  H  299  1  0.81590200  0.17021700  0.31714000  1
  H  300  1  0.83755400  0.09560000  0.24675400  1
  H  307  1  0.80539500  0.24987000  0.90042200  1
  H  316  1  0.74839800  0.25698100  0.94375100  1
  H  317  1  0.78709600  0.19460300  0.96389100  1
  H  318  1  0.75724900  0.20194800  0.97004700  1
  H  319  1  0.79811600  0.31931800  0.89295800  1
  H  320  1  0.81046700  0.30661300  0.87778100  1
  H  321  1  0.77422300  0.28247300  0.93933500  1
  H  322  1  0.82203900  0.23641500  0.92546400  1
  H  327  1  0.71893300  0.23587600  0.96266600  1
  H  328  1  0.78901400  0.32066400  0.92505000  1
  H  329  1  0.81574000  0.27764100  0.86781900  1
  H  330  1  0.83851500  0.20761800  0.94215700  1
  H  337  1  0.80583200  0.74853500  0.17673600  1
  H  346  1  0.74826200  0.74160100  0.13362500  1
  H  347  1  0.78719600  0.80385700  0.11330300  1
  H  348  1  0.75733700  0.79652100  0.10714700  1
  H  349  1  0.79790700  0.67913000  0.18426900  1
  H  350  1  0.81059100  0.69179800  0.19937100  1
  H  351  1  0.77383900  0.71605100  0.13798700  1
  H  352  1  0.82217100  0.76199900  0.15166600  1
  H  357  1  0.71885000  0.76270900  0.11469700  1
  H  358  1  0.78857300  0.67791800  0.15204400  1
  H  359  1  0.81597800  0.72103400  0.20932900  1
  H  360  1  0.83862700  0.79084800  0.13470600  1
  H  367  1  0.07538700  0.13770000  0.78807900  1
  H  376  1  0.13280700  0.09448100  0.78115300  1
  H  377  1  0.09389200  0.07409900  0.84339500  1
  H  378  1  0.12362000  0.06778400  0.83596500  1
  H  379  1  0.08268800  0.14488700  0.71861200  1
  H  380  1  0.07013100  0.16005300  0.73125500  1
  H  381  1  0.10705900  0.09877900  0.75567400  1
  H  382  1  0.05911400  0.11271600  0.80171100  1
  H  387  1  0.16218800  0.07540700  0.80233800  1
  H  388  1  0.09207700  0.11283300  0.71740400  1
  H  389  1  0.06481700  0.17012600  0.76045300  1
  H  390  1  0.04277000  0.09552900  0.83066200  1
  H  397  1  0.07555100  0.86052200  0.28942300  1
  H  406  1  0.13291400  0.90377000  0.29643800  1
  H  407  1  0.09422700  0.92411000  0.23412500  1
  H  408  1  0.12389600  0.93046500  0.24161800  1
  H  409  1  0.08264900  0.85332400  0.35890300  1
  H  410  1  0.07011400  0.83816300  0.34624800  1
  H  411  1  0.10711800  0.89943700  0.32187800  1
  H  412  1  0.05932600  0.88549100  0.27576700  1
  H  417  1  0.16235000  0.92287800  0.27525000  1
  H  418  1  0.09211300  0.88534500  0.36013700  1
  H  419  1  0.06475500  0.82809900  0.31714900  1
  H  420  1  0.04309500  0.90271200  0.24676100  1
  H  427  1  0.07518700  0.74844900  0.90050400  1
  H  436  1  0.13227200  0.74137300  0.94378400  1
  H  437  1  0.09352300  0.80372700  0.96395800  1
  H  438  1  0.12339700  0.79640200  0.97008300  1
  H  439  1  0.08260400  0.67900800  0.89302000  1
  H  440  1  0.07022300  0.69170600  0.87784800  1
  H  441  1  0.10646000  0.71586200  0.93939700  1
  H  442  1  0.05854800  0.76188500  0.92557000  1
  H  447  1  0.16174000  0.76248200  0.96268100  1
  H  448  1  0.09170300  0.67766800  0.92512700  1
  H  449  1  0.06491100  0.72068300  0.86789200  1
  H  450  1  0.04207100  0.79069100  0.94239900  1
  H  457  1  0.07483000  0.24977400  0.17674000  1
  H  466  1  0.13240400  0.25670900  0.13363000  1
  H  467  1  0.09347400  0.19445300  0.11330600  1
  H  468  1  0.12333300  0.20178900  0.10715200  1
  H  469  1  0.08275500  0.31917800  0.18427500  1
  H  470  1  0.07006800  0.30651000  0.19937600  1
  H  471  1  0.10682800  0.28226000  0.13799300  1
  H  472  1  0.05849300  0.23631000  0.15166700  1
  H  477  1  0.16181800  0.23560400  0.11470400  1
  H  478  1  0.09209200  0.32039100  0.15204900  1
  H  479  1  0.06467900  0.27727400  0.20933300  1
  H  480  1  0.04203900  0.20746100  0.13470600  1
  H  487  1  0.57899000  0.63498200  0.78906300  1
  H  496  1  0.64359300  0.59578800  0.79442600  1
  H  497  1  0.60918700  0.57651100  0.73074800  1
  H  498  1  0.63937700  0.57139400  0.73833500  1
  H  499  1  0.58380600  0.63965400  0.85874800  1
  H  500  1  0.56934600  0.65451700  0.84649600  1
  H  501  1  0.61718500  0.59728100  0.82004400  1
  H  502  1  0.56734100  0.60981300  0.77425100  1
  H  507  1  0.67418600  0.57863900  0.76205000  1
  H  508  1  0.60296200  0.60451100  0.85682400  1
  H  509  1  0.56440800  0.66407600  0.80712100  1
  H  510  1  0.55531300  0.59274400  0.74359200  1
  H  517  1  0.57908800  0.36322900  0.28844900  1
  H  526  1  0.64362200  0.40245700  0.28306300  1
  H  527  1  0.60904200  0.42187500  0.34666000  1
  H  528  1  0.63923000  0.42700400  0.33908000  1
  H  529  1  0.58400500  0.35846100  0.21876900  1
  H  530  1  0.56958000  0.34359600  0.23103400  1
  H  531  1  0.61721900  0.40092800  0.25743200  1
  H  532  1  0.56736300  0.38841400  0.30321400  1
  H  537  1  0.67417100  0.41961800  0.31539000  1
  H  538  1  0.60318200  0.39379400  0.22076500  1
  H  539  1  0.56455300  0.33412300  0.27046900  1
  H  540  1  0.55516900  0.40541600  0.33376600  1
  H  547  1  0.57873200  0.24901000  0.67481800  1
  H  556  1  0.64308300  0.24365000  0.63551700  1
  H  557  1  0.60727400  0.30662800  0.61503800  1
  H  558  1  0.63752700  0.29914400  0.60991700  1
  H  559  1  0.58440800  0.17937800  0.67998400  1
  H  560  1  0.57006600  0.19167500  0.69485400  1
  H  561  1  0.61681700  0.21792700  0.63716300  1
  H  562  1  0.56669400  0.26357900  0.64957000  1
  H  567  1  0.67360000  0.27531200  0.61847800  1
  H  568  1  0.60301500  0.18127700  0.64449000  1
  H  569  1  0.56398600  0.23198100  0.70360800  1
  H  570  1  0.55316500  0.29313100  0.63378000  1
  H  577  1  0.57878700  0.74935300  0.40270300  1
  H  586  1  0.64341400  0.75469800  0.44185700  1
  H  587  1  0.60807300  0.69153500  0.46210000  1
  H  588  1  0.63830800  0.69906000  0.46719000  1
  H  589  1  0.58381600  0.81902500  0.39784600  1
  H  590  1  0.56928300  0.80675100  0.38302900  1
  H  591  1  0.61712000  0.78038700  0.44030500  1
  H  592  1  0.56702800  0.73468200  0.42792700  1
  H  597  1  0.67385600  0.72261800  0.45897100  1
  H  598  1  0.60313900  0.81704300  0.43314800  1
  H  599  1  0.56439200  0.76770200  0.37341900  1
  H  600  1  0.55375800  0.70504300  0.44374300  1
  H  607  1  0.30166900  0.36332500  0.78906700  1
  H  616  1  0.23706800  0.40252000  0.79442700  1
  H  617  1  0.27148100  0.42179500  0.73075000  1
  H  618  1  0.24129100  0.42691200  0.73833600  1
  H  619  1  0.29684500  0.35865200  0.85875200  1
  H  620  1  0.31130700  0.34379000  0.84650000  1
  H  621  1  0.26347300  0.40102500  0.82004600  1
  H  622  1  0.31332100  0.38849200  0.77425500  1
  H  627  1  0.20648000  0.41967000  0.76205100  1
  H  628  1  0.27769300  0.39379000  0.85682900  1
  H  629  1  0.31625100  0.33422900  0.80712600  1
  H  630  1  0.32535100  0.40556000  0.74359600  1
  H  637  1  0.30160400  0.63517900  0.28847500  1
  H  646  1  0.23708100  0.59594700  0.28310700  1
  H  647  1  0.27191400  0.57625600  0.34656200  1
  H  648  1  0.24171200  0.57114000  0.33900100  1
  H  649  1  0.29664800  0.63993900  0.21879200  1
  H  650  1  0.31107500  0.65480800  0.23105400  1
  H  651  1  0.26347300  0.59747200  0.25746700  1
  H  652  1  0.31335500  0.60998900  0.30322700  1
  H  657  1  0.20660400  0.57871800  0.31539200  1
  H  658  1  0.27752000  0.60459600  0.22080100  1
  H  659  1  0.31615000  0.66427700  0.27049500  1
  H  660  1  0.32604800  0.59351400  0.33338000  1
  H  667  1  0.30192700  0.74928700  0.67480900  1
  H  676  1  0.23756600  0.75465100  0.63551500  1
  H  677  1  0.27337500  0.69167700  0.61502100  1
  H  678  1  0.24312200  0.69916200  0.60990000  1
  H  679  1  0.29624400  0.81891800  0.67998500  1
  H  680  1  0.31059000  0.80662000  0.69485100  1
  H  681  1  0.26383500  0.78037400  0.63716000  1
  H  682  1  0.31395900  0.73472000  0.64955800  1
  H  687  1  0.20711200  0.72290700  0.61845300  1
  H  688  1  0.27761800  0.81701400  0.64447700  1
  H  689  1  0.31667400  0.76631000  0.70359900  1
  H  690  1  0.32748400  0.70517000  0.63376400  1
  H  697  1  0.30186200  0.24893900  0.40269000  1
  H  706  1  0.23723700  0.24361300  0.44185100  1
  H  707  1  0.27259700  0.30677300  0.46208300  1
  H  708  1  0.24236200  0.29925200  0.46717700  1
  H  709  1  0.29680000  0.17926900  0.39785000  1
  H  710  1  0.31133200  0.19153600  0.38302700  1
  H  711  1  0.26352400  0.21792200  0.44030300  1
  H  712  1  0.31362200  0.26362000  0.42790800  1
  H  717  1  0.20680500  0.27569700  0.45896500  1
  H  718  1  0.27749200  0.18126300  0.43315700  1
  H  719  1  0.31627300  0.23061100  0.37342500  1
  H  720  1  0.32690300  0.29325900  0.44371700  1
  H  727  1  0.30544700  0.36145900  0.28703600  1
  H  736  1  0.24649100  0.40428800  0.28155400  1
  H  737  1  0.28629100  0.42341600  0.34393900  1
  H  738  1  0.25616600  0.42949500  0.33700600  1
  H  739  1  0.29665600  0.35554800  0.21755700  1
  H  740  1  0.31025300  0.34032600  0.22968900  1
  H  741  1  0.27052800  0.40015400  0.25574000  1
  H  742  1  0.32099000  0.38618200  0.30101900  1
  H  747  1  0.21747800  0.42286700  0.30267200  1
  H  748  1  0.28091000  0.39176600  0.21935700  1
  H  749  1  0.31630400  0.32962900  0.25861500  1
  H  750  1  0.33756700  0.40270100  0.33028700  1
  H  757  1  0.30518500  0.63702200  0.79042300  1
  H  766  1  0.24634100  0.59414500  0.79598400  1
  H  767  1  0.28601800  0.57501300  0.73357100  1
  H  768  1  0.25594200  0.56888900  0.74055100  1
  H  769  1  0.29658900  0.64292600  0.85991900  1
  H  770  1  0.31013500  0.65815800  0.84777800  1
  H  771  1  0.27044700  0.59830300  0.82176800  1
  H  772  1  0.32074400  0.61230900  0.77642900  1
  H  777  1  0.21730300  0.57552000  0.77484900  1
  H  778  1  0.28082600  0.60662600  0.85808200  1
  H  779  1  0.31623700  0.66883400  0.81896800  1
  H  780  1  0.33726700  0.59573200  0.74713000  1
  H  787  1  0.30551200  0.75074500  0.40129400  1
  H  796  1  0.24680600  0.75633300  0.44412800  1
  H  797  1  0.28656300  0.69391800  0.46320000  1
  H  798  1  0.25630600  0.70076000  0.46909600  1
  H  799  1  0.29676200  0.82021900  0.39518700  1
  H  800  1  0.31016700  0.80804000  0.37993800  1
  H  801  1  0.27098900  0.78219000  0.44000600  1
  H  802  1  0.32139800  0.73694200  0.42612000  1
  H  807  1  0.21767300  0.73514800  0.46251000  1
  H  808  1  0.28130000  0.81854800  0.43145000  1
  H  809  1  0.31612300  0.77934200  0.36933100  1
  H  810  1  0.33812600  0.70786000  0.44222100  1
  H  817  1  0.30584900  0.24755900  0.67591300  1
  H  826  1  0.24671300  0.24214300  0.63323600  1
  H  827  1  0.28658100  0.30451800  0.61413700  1
  H  828  1  0.25633000  0.29767600  0.60822100  1
  H  829  1  0.29656500  0.17812200  0.68203500  1
  H  830  1  0.31024800  0.19025800  0.69721900  1
  H  831  1  0.27067200  0.21625200  0.63732300  1
  H  832  1  0.32147600  0.26141000  0.65109200  1
  H  837  1  0.21763200  0.26328700  0.61484600  1
  H  838  1  0.28064600  0.17995300  0.64568600  1
  H  839  1  0.31626700  0.21917900  0.70786100  1
  H  840  1  0.33816300  0.29057700  0.63478100  1
  H  847  1  0.57524300  0.63687400  0.28704200  1
  H  856  1  0.63418700  0.59404600  0.28155900  1
  H  857  1  0.59437500  0.57490600  0.34393600  1
  H  858  1  0.62450200  0.56882700  0.33700500  1
  H  859  1  0.58401200  0.64278200  0.21756300  1
  H  860  1  0.57042500  0.65800700  0.22969500  1
  H  861  1  0.61013800  0.59817400  0.25574200  1
  H  862  1  0.55968400  0.61214700  0.30102000  1
  H  867  1  0.66320600  0.57547200  0.30268800  1
  H  868  1  0.59974600  0.60656200  0.21936000  1
  H  869  1  0.56441200  0.66869900  0.25860500  1
  H  870  1  0.54310200  0.59561900  0.33028600  1
  H  877  1  0.57546700  0.36129200  0.79043300  1
  H  886  1  0.63431300  0.40416900  0.79599000  1
  H  887  1  0.59463700  0.42329600  0.73357400  1
  H  888  1  0.62471300  0.42942000  0.74055300  1
  H  889  1  0.58406600  0.35539600  0.85992900  1
  H  890  1  0.57052100  0.34016300  0.84779100  1
  H  891  1  0.61020300  0.40001700  0.82177400  1
  H  892  1  0.55990900  0.38600500  0.77643600  1
  H  897  1  0.66335100  0.42279100  0.77485300  1
  H  898  1  0.59981500  0.39169200  0.85809400  1
  H  899  1  0.56442100  0.32948300  0.81898200  1
  H  900  1  0.54338700  0.40257900  0.74713500  1
  H  907  1  0.57507900  0.24757100  0.40136900  1
  H  916  1  0.63386800  0.24201400  0.44415300  1
  H  917  1  0.59408600  0.30441800  0.46324200  1
  H  918  1  0.62436600  0.29759000  0.46911100  1
  H  919  1  0.58395700  0.17810600  0.39523900  1
  H  920  1  0.57052300  0.19027800  0.37999600  1
  H  921  1  0.60970100  0.21614200  0.44005900  1
  H  922  1  0.55920600  0.26135900  0.42621800  1
  H  927  1  0.66300900  0.26320000  0.46251600  1
  H  928  1  0.59944700  0.17978900  0.43151900  1
  H  929  1  0.56453200  0.21898300  0.36939500  1
  H  930  1  0.54248900  0.29045900  0.44243900  1
  H  937  1  0.57481500  0.75074500  0.67591700  1
  H  946  1  0.63395500  0.75616400  0.63324200  1
  H  947  1  0.59408600  0.69379100  0.61413800  1
  H  948  1  0.62433700  0.70063300  0.60822300  1
  H  949  1  0.58410700  0.82018000  0.68204900  1
  H  950  1  0.57042300  0.80804300  0.69723200  1
  H  951  1  0.60999500  0.78205600  0.63733100  1
  H  952  1  0.55919000  0.73689800  0.65109500  1
  H  957  1  0.66303600  0.73502200  0.61485100  1
  H  958  1  0.60001600  0.81835500  0.64569500  1
  H  959  1  0.56439200  0.77912100  0.70786600  1
  H  960  1  0.54250300  0.70773100  0.63477900  1
  H  967  1  0.18511200  0.95033400  0.28523500  1
  H  974  1  0.16118600  0.01098400  0.30454200  1
  H  975  1  0.18895700  0.01333000  0.25312800  1
  H  976  1  0.13174600  0.99930900  0.26537700  1
  H  978  1  0.14853600  0.03694700  0.31913400  1
  H  979  1  0.14888600  0.05617500  0.30949400  1
  H  983  1  0.22056400  0.96986600  0.29395800  1
  H  984  1  0.21818300  0.99118800  0.29136600  1
  H  997  1  0.18492300  0.04797500  0.79223500  1
  H  1004  1  0.16112100  0.98742500  0.77312100  1
  H  1005  1  0.18917600  0.98488500  0.82443700  1
  H  1006  1  0.13197300  0.99895900  0.81244900  1
  H  1008  1  0.14834800  0.96152900  0.75845700  1
  H  1009  1  0.14869700  0.94226800  0.76802900  1
  H  1013  1  0.22036300  0.02848100  0.78340500  1
  H  1014  1  0.21809300  0.00716100  0.78605300  1
  H  1027  1  0.18282100  0.75045100  0.99030100  1
  H  1034  1  0.16110200  0.73473700  0.04985400  1
  H  1035  1  0.19085500  0.78558300  0.05375700  1
  H  1036  1  0.13588400  0.77717400  0.03867600  1
  H  1038  1  0.14719100  0.71972900  0.07527100  1
  H  1039  1  0.14722900  0.72892300  0.09471700  1
  H  1043  1  0.21717700  0.74011900  0.00982100  1
  H  1044  1  0.21639600  0.74420000  0.03095500  1
  H  1057  1  0.18366500  0.24697200  0.08721900  1
  H  1064  1  0.16132900  0.26408300  0.02724500  1
  H  1065  1  0.19045500  0.21303200  0.02386800  1
  H  1066  1  0.13459000  0.22267500  0.03842700  1
  H  1068  1  0.14794600  0.27897200  0.00161600  1
  H  1069  1  0.14808000  0.26960900  0.98225000  1
  H  1073  1  0.21851400  0.25681700  0.06779800  1
  H  1074  1  0.21721300  0.25331900  0.04656900  1
  H  1087  1  0.69554000  0.04797500  0.28522500  1
  H  1094  1  0.71948200  0.98732500  0.30454300  1
  H  1095  1  0.69171200  0.98498000  0.25312900  1
  H  1096  1  0.74892800  0.99900200  0.26538700  1
  H  1098  1  0.73213100  0.96136100  0.31913500  1
  H  1099  1  0.73178200  0.94213400  0.30949400  1
  H  1103  1  0.66008900  0.02844200  0.29394500  1
  H  1104  1  0.66247700  0.00712000  0.29135700  1
  H  1117  1  0.69581900  0.95037600  0.79217100  1
  H  1124  1  0.71975000  0.01091300  0.77312800  1
  H  1125  1  0.69144000  0.01346500  0.82438500  1
  H  1126  1  0.74870100  0.99936900  0.81250600  1
  H  1128  1  0.73261100  0.03680300  0.75848500  1
  H  1129  1  0.73222900  0.05606600  0.76805400  1
  H  1133  1  0.66042300  0.96988100  0.78329200  1
  H  1134  1  0.66269000  0.99119800  0.78595700  1
  H  1147  1  0.69792000  0.24793600  0.99028900  1
  H  1154  1  0.71963200  0.26359600  0.04984800  1
  H  1155  1  0.68986700  0.21275100  0.05372400  1
  H  1156  1  0.74481900  0.22113600  0.03863800  1
  H  1158  1  0.73350700  0.27859900  0.07527400  1
  H  1159  1  0.73343800  0.26940600  0.09471900  1
  H  1163  1  0.66358800  0.25827900  0.00982000  1
  H  1164  1  0.66436700  0.25417800  0.03095100  1
  H  1177  1  0.69699900  0.75134300  0.08721300  1
  H  1184  1  0.71933800  0.73422900  0.02723500  1
  H  1185  1  0.69022400  0.78528200  0.02386400  1
  H  1186  1  0.74609100  0.77562800  0.03842100  1
  H  1188  1  0.73271200  0.71934000  0.00160500  1
  H  1189  1  0.73257800  0.72870300  0.98224000  1
  H  1193  1  0.66214800  0.74150400  0.06779100  1
  H  1194  1  0.66345200  0.74500100  0.04656100  1
  H  1207  1  0.68387000  0.45067300  0.78663700  1
  H  1214  1  0.66269000  0.50982700  0.80174100  1
  H  1215  1  0.69113300  0.51422600  0.75060200  1
  H  1216  1  0.63769600  0.49844600  0.75835000  1
  H  1218  1  0.64922400  0.53512000  0.81714100  1
  H  1219  1  0.64918900  0.55467100  0.80817400  1
  H  1223  1  0.71767100  0.47043500  0.79717900  1
  H  1224  1  0.71694200  0.49149500  0.79274500  1
  H  1237  1  0.68370000  0.54760300  0.29083900  1
  H  1244  1  0.66263700  0.48853900  0.27589500  1
  H  1245  1  0.69132800  0.48399200  0.32693800  1
  H  1246  1  0.63796000  0.49981600  0.31939700  1
  H  1248  1  0.64903100  0.46330700  0.26044900  1
  H  1249  1  0.64897000  0.44373400  0.26936700  1
  H  1253  1  0.71748200  0.52786900  0.28021000  1
  H  1254  1  0.71685400  0.50681400  0.28467800  1
  H  1267  1  0.68247000  0.25027600  0.49054900  1
  H  1274  1  0.66215400  0.23705000  0.54891000  1
  H  1275  1  0.69298800  0.28750000  0.55437100  1
  H  1276  1  0.64096600  0.28213000  0.53780600  1
  H  1278  1  0.64741100  0.22151900  0.57378400  1
  H  1279  1  0.64724500  0.23019000  0.59346600  1
  H  1283  1  0.71548900  0.23878000  0.51029500  1
  H  1284  1  0.71588100  0.24389800  0.53120300  1
  H  1297  1  0.68294800  0.74757500  0.58690900  1
  H  1304  1  0.66248900  0.76156400  0.52827200  1
  H  1305  1  0.69252100  0.71086500  0.52314000  1
  H  1306  1  0.64003700  0.71692800  0.53936200  1
  H  1308  1  0.64829500  0.77709400  0.50323900  1
  H  1309  1  0.64815500  0.76831600  0.48360300  1
  H  1313  1  0.71629400  0.75879400  0.56722700  1
  H  1314  1  0.71633200  0.75396700  0.54625000  1
  H  1327  1  0.19678300  0.54763700  0.78663200  1
  H  1334  1  0.21797300  0.48848200  0.80174100  1
  H  1335  1  0.18953700  0.48408300  0.75060100  1
  H  1336  1  0.24297600  0.49986300  0.75835600  1
  H  1338  1  0.23144000  0.46319000  0.81714100  1
  H  1339  1  0.23147600  0.44363900  0.80817500  1
  H  1343  1  0.16298200  0.52787400  0.79717000  1
  H  1344  1  0.16371900  0.50681300  0.79273800  1
  H  1357  1  0.19703900  0.45074400  0.29079100  1
  H  1364  1  0.21821300  0.50979300  0.27589100  1
  H  1365  1  0.18931200  0.51436000  0.32688500  1
  H  1366  1  0.24270700  0.49851100  0.31942800  1
  H  1368  1  0.23189900  0.53501800  0.26046500  1
  H  1369  1  0.23194000  0.55459300  0.26937700  1
  H  1373  1  0.16330500  0.47048900  0.28012200  1
  H  1374  1  0.16392900  0.49154300  0.28459600  1
  H  1387  1  0.19825900  0.74809200  0.49054100  1
  H  1394  1  0.21856700  0.76129700  0.54891800  1
  H  1395  1  0.18773800  0.71084000  0.55434000  1
  H  1396  1  0.23976900  0.71622100  0.53778500  1
  H  1398  1  0.23325800  0.77682000  0.57380900  1
  H  1399  1  0.23339500  0.76814300  0.59348700  1
  H  1403  1  0.16524700  0.75958400  0.51029400  1
  H  1404  1  0.16485800  0.75445900  0.53119900  1
  H  1417  1  0.19772400  0.25073500  0.58690300  1
  H  1424  1  0.21818100  0.23675000  0.52826500  1
  H  1425  1  0.18815600  0.28745200  0.52313500  1
  H  1426  1  0.24063500  0.28138700  0.53936000  1
  H  1428  1  0.23236800  0.22121900  0.50323000  1
  H  1429  1  0.23250700  0.22999700  0.48359500  1
  H  1433  1  0.16438100  0.23951600  0.56722000  1
  H  1434  1  0.16434300  0.24434600  0.54624100  1
  H  1447  1  0.11715000  0.11885600  0.38517600  1
  H  1454  1  0.16659500  0.16264500  0.40242600  1
  H  1455  1  0.23124700  0.12746700  0.40748000  1
  H  1456  1  0.21209300  0.13116000  0.37467800  1
  H  1458  1  0.17272500  0.19212100  0.41002800  1
  H  1459  1  0.20224200  0.19994200  0.41677000  1
  H  1463  1  0.12280300  0.12630100  0.41495900  1
  H  1464  1  0.15225300  0.13301400  0.42295900  1
  H  1477  1  0.11717700  0.87945000  0.69228500  1
  H  1484  1  0.16658000  0.83567000  0.67499900  1
  H  1485  1  0.23127700  0.87079600  0.66999100  1
  H  1486  1  0.21209700  0.86702500  0.70277400  1
  H  1488  1  0.17266700  0.80618700  0.66742200  1
  H  1489  1  0.20219000  0.79833600  0.66072600  1
  H  1493  1  0.12281200  0.87203100  0.66247500  1
  H  1494  1  0.15225100  0.86529900  0.65447400  1
  H  1507  1  0.11706100  0.65263200  0.15853200  1
  H  1514  1  0.16656900  0.63522400  0.20217400  1
  H  1515  1  0.23119600  0.63023100  0.16699100  1
  H  1516  1  0.21199500  0.66303100  0.17093200  1
  H  1518  1  0.17267200  0.62757300  0.23162200  1
  H  1519  1  0.20218800  0.62083200  0.23944500  1
  H  1523  1  0.12267200  0.62279300  0.16582700  1
  H  1524  1  0.15213000  0.61474300  0.17246700  1
  H  1537  1  0.11704100  0.34556900  0.91878200  1
  H  1544  1  0.16652900  0.36314300  0.87514600  1
  H  1545  1  0.23109000  0.36803600  0.91041100  1
  H  1546  1  0.21203000  0.33527400  0.90647900  1
  H  1548  1  0.17269100  0.37095400  0.84572900  1
  H  1549  1  0.20223600  0.37771500  0.83796700  1
  H  1553  1  0.12264000  0.37542400  0.91160300  1
  H  1554  1  0.15207100  0.38348800  0.90493000  1
  H  1567  1  0.76349400  0.87944400  0.38517400  1
  H  1574  1  0.71404200  0.83565500  0.40242200  1
  H  1575  1  0.64939100  0.87083500  0.40746700  1
  H  1576  1  0.66855300  0.86714300  0.37466800  1
  H  1578  1  0.70790900  0.80618000  0.41002600  1
  H  1579  1  0.67839000  0.79835900  0.41676600  1
  H  1583  1  0.75783300  0.87199800  0.41495800  1
  H  1584  1  0.72838200  0.86528500  0.42295600  1
  H  1597  1  0.76351200  0.11891800  0.69233400  1
  H  1604  1  0.71408900  0.16265800  0.67499900  1
  H  1605  1  0.64940900  0.12751800  0.67001400  1
  H  1606  1  0.66857500  0.13131300  0.70279000  1
  H  1608  1  0.70798900  0.19213500  0.66740200  1
  H  1609  1  0.67846300  0.19997700  0.66070100  1
  H  1613  1  0.75788300  0.12630400  0.66251700  1
  H  1614  1  0.72844100  0.13301500  0.65450300  1
  H  1627  1  0.76360800  0.34566900  0.15852600  1
  H  1634  1  0.71410100  0.36310000  0.20216800  1
  H  1635  1  0.64948800  0.36809500  0.16697700  1
  H  1636  1  0.66867300  0.33528700  0.17094000  1
  H  1638  1  0.70799700  0.37077100  0.23161300  1
  H  1639  1  0.67848500  0.37752900  0.23942600  1
  H  1643  1  0.75800900  0.37551300  0.16581300  1
  H  1644  1  0.72855500  0.38356900  0.17245200  1
  H  1657  1  0.76359100  0.65273100  0.91879900  1
  H  1664  1  0.71411500  0.63516300  0.87515700  1
  H  1665  1  0.64954500  0.63026300  0.91041500  1
  H  1666  1  0.66860400  0.66302600  0.90648900  1
  H  1668  1  0.70796000  0.62735500  0.84573800  1
  H  1669  1  0.67841800  0.62059400  0.83797300  1
  H  1673  1  0.75799500  0.62287600  0.91161600  1
  H  1674  1  0.72856700  0.61481300  0.90494100  1
  H  1687  1  0.76515400  0.87762000  0.69101500  1
  H  1694  1  0.71313400  0.83500800  0.67419700  1
  H  1695  1  0.64975600  0.87129100  0.67055400  1
  H  1696  1  0.67008300  0.86713500  0.70291000  1
  H  1698  1  0.70542800  0.80569100  0.66658800  1
  H  1699  1  0.67528100  0.79840300  0.66040600  1
  H  1703  1  0.75798700  0.87057200  0.66126700  1
  H  1704  1  0.72792100  0.86452400  0.65368300  1
  H  1717  1  0.76501200  0.12068000  0.38651700  1
  H  1724  1  0.71293100  0.16320300  0.40342800  1
  H  1725  1  0.64952900  0.12694300  0.40684000  1
  H  1726  1  0.66996700  0.13124300  0.37455600  1
  H  1728  1  0.70522300  0.19250400  0.41109100  1
  H  1729  1  0.67504900  0.19979600  0.41720900  1
  H  1733  1  0.75777600  0.12763700  0.41629600  1
  H  1734  1  0.72768900  0.13366600  0.42386300  1
  H  1747  1  0.76540200  0.34706300  0.91743000  1
  H  1754  1  0.71323300  0.36373900  0.87487000  1
  H  1755  1  0.64982100  0.36725400  0.91111700  1
  H  1756  1  0.67041200  0.33497200  0.90687800  1
  H  1758  1  0.70552800  0.37127700  0.84555100  1
  H  1759  1  0.67534200  0.37733300  0.83822600  1
  H  1763  1  0.75810300  0.37681300  0.91036400  1
  H  1764  1  0.72798800  0.38433700  0.90433800  1
  H  1777  1  0.76508900  0.65147900  0.15998900  1
  H  1784  1  0.71315200  0.63464300  0.20264200  1
  H  1785  1  0.64964900  0.63118900  0.16643400  1
  H  1786  1  0.67010100  0.66346300  0.17065200  1
  H  1788  1  0.70551600  0.62695900  0.23194800  1
  H  1789  1  0.67534000  0.62087800  0.23926900  1
  H  1793  1  0.75784300  0.62171000  0.16692600  1
  H  1794  1  0.72778300  0.61416700  0.17303900  1
  H  1807  1  0.11550100  0.12070200  0.69101700  1
  H  1814  1  0.16752700  0.16330500  0.67419200  1
  H  1815  1  0.23089700  0.12701800  0.67054400  1
  H  1816  1  0.21057900  0.13117500  0.70290100  1
  H  1818  1  0.17523700  0.19262200  0.66658300  1
  H  1819  1  0.20538500  0.19990800  0.66039800  1
  H  1823  1  0.12266200  0.12774600  0.66126700  1
  H  1824  1  0.15273000  0.13379000  0.65368100  1
  H  1837  1  0.11566700  0.87764800  0.38652000  1
  H  1844  1  0.16776100  0.83513400  0.40343000  1
  H  1845  1  0.23116900  0.87139100  0.40681000  1
  H  1846  1  0.21070700  0.86709200  0.37453800  1
  H  1848  1  0.17547100  0.80583400  0.41109300  1
  H  1849  1  0.20565100  0.79854200  0.41720100  1
  H  1853  1  0.12292400  0.87069700  0.41630000  1
  H  1854  1  0.15301700  0.86467100  0.42386000  1
  H  1867  1  0.11529800  0.65127400  0.91746700  1
  H  1874  1  0.16743900  0.63460900  0.87488500  1
  H  1875  1  0.23086700  0.63108000  0.91111800  1
  H  1876  1  0.21027800  0.66337000  0.90688100  1
  H  1878  1  0.17512700  0.62707000  0.84556200  1
  H  1879  1  0.20530600  0.62100800  0.83823300  1
  H  1883  1  0.12259000  0.62152700  0.91039300  1
  H  1884  1  0.15270000  0.61400400  0.90435500  1
  H  1897  1  0.11556900  0.34683000  0.16000100  1
  H  1904  1  0.16751200  0.36367000  0.20265300  1
  H  1905  1  0.23100500  0.36712900  0.16643700  1
  H  1906  1  0.21055800  0.33485200  0.17066200  1
  H  1908  1  0.17515300  0.37135400  0.23195700  1
  H  1909  1  0.20533000  0.37743900  0.23927600  1
  H  1913  1  0.12281100  0.37659900  0.16693700  1
  H  1914  1  0.15287000  0.38414500  0.17305000  1
  H  1927  1  0.11195900  0.13025800  0.21816500  1
  H  1934  1  0.03681100  0.16886600  0.19354400  1
  H  1935  1  0.07657700  0.13820200  0.15636400  1
  H  1936  1  0.02468100  0.12638100  0.18928700  1
  H  1938  1  0.02883300  0.19868000  0.18789700  1
  H  1939  1  0.03896500  0.20832900  0.16983800  1
  H  1943  1  0.12490100  0.15304600  0.19971800  1
  H  1944  1  0.10500400  0.16090200  0.18434800  1
  H  1957  1  0.11238300  0.86855800  0.85964600  1
  H  1964  1  0.03749900  0.82954900  0.88374400  1
  H  1965  1  0.07647200  0.86011600  0.92131100  1
  H  1966  1  0.02463100  0.87171700  0.88801700  1
  H  1968  1  0.02974200  0.79967000  0.88914200  1
  H  1969  1  0.03974500  0.78993100  0.90718000  1
  H  1973  1  0.12558600  0.84595100  0.87824100  1
  H  1974  1  0.10564700  0.83794600  0.89351000  1
  H  1987  1  0.11294700  0.82137600  0.16670400  1
  H  1994  1  0.03923600  0.84349100  0.20795700  1
  H  1995  1  0.07518800  0.88223600  0.17732200  1
  H  1996  1  0.02342900  0.84756700  0.16700700  1
  H  1998  1  0.03240000  0.84833500  0.23803500  1
  H  1999  1  0.04209200  0.86639900  0.24786800  1
  H  2003  1  0.12726900  0.84043300  0.18861500  1
  H  2004  1  0.10727100  0.85523900  0.19738200  1
  H  2017  1  0.11302400  0.17705200  0.91021200  1
  H  2024  1  0.03860600  0.15461900  0.86953800  1
  H  2025  1  0.07557200  0.11616500  0.90007200  1
  H  2026  1  0.02375200  0.15052200  0.91079800  1
  H  2028  1  0.03134800  0.14961200  0.83951300  1
  H  2029  1  0.04111400  0.13155600  0.82969500  1
  H  2033  1  0.12690800  0.15814900  0.88805500  1
  H  2034  1  0.10680500  0.14330500  0.87945000  1
  H  2047  1  0.76870400  0.86805000  0.21816600  1
  H  2054  1  0.84385100  0.82944200  0.19354400  1
  H  2055  1  0.80408600  0.86010700  0.15636400  1
  H  2056  1  0.85598200  0.87192600  0.18928700  1
  H  2058  1  0.85182900  0.79962700  0.18789600  1
  H  2059  1  0.84169900  0.78997900  0.16983700  1
  H  2063  1  0.75576200  0.84526200  0.19971800  1
  H  2064  1  0.77566000  0.83740700  0.18434800  1
  H  2077  1  0.76759100  0.12853800  0.86054200  1
  H  2084  1  0.84207100  0.16863300  0.88347900  1
  H  2085  1  0.80483000  0.13802800  0.92173200  1
  H  2086  1  0.85643600  0.12706600  0.88762400  1
  H  2088  1  0.84940100  0.19861600  0.88857700  1
  H  2089  1  0.83973000  0.20839900  0.90666700  1
  H  2093  1  0.75393500  0.15080300  0.87940300  1
  H  2094  1  0.77401000  0.15917700  0.89439800  1
  H  2107  1  0.76769600  0.17691700  0.16667100  1
  H  2114  1  0.84139600  0.15482700  0.20794600  1
  H  2115  1  0.80548000  0.11606700  0.17731400  1
  H  2116  1  0.85723200  0.15074900  0.16700800  1
  H  2118  1  0.84822600  0.14998900  0.23802800  1
  H  2119  1  0.83854300  0.13192300  0.24786200  1
  H  2123  1  0.75336600  0.15785500  0.18857600  1
  H  2124  1  0.77336600  0.14305600  0.19735200  1
  H  2137  1  0.76763300  0.82125900  0.91019500  1
  H  2144  1  0.84205500  0.84370300  0.86953000  1
  H  2145  1  0.80508200  0.88214900  0.90006900  1
  H  2146  1  0.85690300  0.84779200  0.91079100  1
  H  2148  1  0.84931100  0.84871100  0.83950600  1
  H  2149  1  0.83954500  0.86676800  0.82969000  1
  H  2153  1  0.75375000  0.84016700  0.88804200  1
  H  2154  1  0.77385500  0.85501300  0.87944100  1
  H  2167  1  0.61039200  0.63199500  0.72010800  1
  H  2174  1  0.53577100  0.67005400  0.69419200  1
  H  2175  1  0.57617800  0.63869300  0.65789200  1
  H  2176  1  0.52457200  0.62653000  0.68972500  1
  H  2178  1  0.52813800  0.69980000  0.68798200  1
  H  2179  1  0.53871500  0.70912000  0.66985300  1
  H  2183  1  0.62283600  0.65526700  0.70210100  1
  H  2184  1  0.60315300  0.66283100  0.68647100  1
  H  2197  1  0.61082800  0.36682100  0.35777800  1
  H  2204  1  0.53639500  0.32836700  0.38314900  1
  H  2205  1  0.57595700  0.35967200  0.41983900  1
  H  2206  1  0.52440200  0.37156600  0.38757200  1
  H  2208  1  0.52896800  0.29855900  0.38913400  1
  H  2209  1  0.53939000  0.28916600  0.40726200  1
  H  2213  1  0.62353300  0.34374200  0.37595700  1
  H  2214  1  0.60376900  0.33603400  0.39147500  1
  H  2227  1  0.61200900  0.31988300  0.66822100  1
  H  2234  1  0.53846900  0.34282400  0.70907500  1
  H  2235  1  0.57467200  0.38097400  0.67783100  1
  H  2236  1  0.52325700  0.34711800  0.66718100  1
  H  2238  1  0.53192800  0.34810700  0.73911800  1
  H  2239  1  0.54190400  0.36626100  0.74867200  1
  H  2243  1  0.62583700  0.33851400  0.69064700  1
  H  2244  1  0.60584600  0.35345500  0.69920300  1
  H  2257  1  0.61197200  0.67864600  0.40861300  1
  H  2264  1  0.53781500  0.65529300  0.36832900  1
  H  2265  1  0.57508300  0.61749800  0.39952000  1
  H  2266  1  0.52355400  0.65101500  0.41052100  1
  H  2268  1  0.53087600  0.64980600  0.33834500  1
  H  2269  1  0.54095500  0.63165600  0.32882800  1
  H  2273  1  0.62539800  0.66014800  0.38597700  1
  H  2274  1  0.60534400  0.64514300  0.37759300  1
  H  2287  1  0.27027400  0.36630900  0.72011100  1
  H  2294  1  0.34489300  0.32825100  0.69419300  1
  H  2295  1  0.30448600  0.35961400  0.65789600  1
  H  2296  1  0.35609100  0.37177700  0.68972800  1
  H  2298  1  0.35252500  0.29850700  0.68798200  1
  H  2299  1  0.34194800  0.28918600  0.66985400  1
  H  2303  1  0.25782800  0.34303800  0.70210500  1
  H  2304  1  0.27751200  0.33547400  0.68647300  1
  H  2317  1  0.26898800  0.63030500  0.35871800  1
  H  2324  1  0.34317600  0.66980300  0.38289400  1
  H  2325  1  0.30532900  0.63846800  0.42029400  1
  H  2326  1  0.35667900  0.62719100  0.38718100  1
  H  2328  1  0.35021700  0.69971900  0.38857700  1
  H  2329  1  0.34014600  0.70915800  0.40676400  1
  H  2333  1  0.25584500  0.65306400  0.37716200  1
  H  2334  1  0.27580100  0.66113100  0.39239300  1
  H  2347  1  0.26863400  0.67840700  0.66819200  1
  H  2354  1  0.34217000  0.65548800  0.70906300  1
  H  2355  1  0.30599300  0.61732500  0.67782200  1
  H  2356  1  0.35740400  0.65119400  0.66717800  1
  H  2358  1  0.34870300  0.65021100  0.73910900  1
  H  2359  1  0.33873400  0.63205700  0.74866500  1
  H  2363  1  0.25480200  0.65977200  0.69061400  1
  H  2364  1  0.27479500  0.64483700  0.69917700  1
  H  2377  1  0.26868700  0.31966700  0.40859900  1
  H  2384  1  0.34284700  0.34302900  0.36832200  1
  H  2385  1  0.30557500  0.38081700  0.39951800  1
  H  2386  1  0.35710300  0.34730000  0.41051600  1
  H  2388  1  0.34978400  0.34851700  0.33833900  1
  H  2389  1  0.33970300  0.36666700  0.32882400  1
  H  2393  1  0.25526300  0.33816900  0.38596500  1
  H  2394  1  0.27531600  0.35317500  0.37758600  1
  H  2407  1  0.99433800  0.13493600  0.32666900  1
  H  2414  1  0.92580800  0.15963600  0.28346700  1
  H  2415  1  0.91764700  0.17908600  0.33409500  1
  H  2416  1  0.96820800  0.18926400  0.29970500  1
  H  2418  1  0.88642900  0.15047400  0.26796500  1
  H  2419  1  0.85563300  0.15087000  0.27668600  1
  H  2423  1  0.94848500  0.12760300  0.33065300  1
  H  2424  1  0.92312500  0.14018300  0.32442700  1
  H  2437  1  0.99447400  0.86308100  0.75040700  1
  H  2444  1  0.92605700  0.83881200  0.79381400  1
  H  2445  1  0.91757800  0.81895600  0.74339400  1
  H  2446  1  0.96825300  0.80908000  0.77798400  1
  H  2448  1  0.88681100  0.84818800  0.80932200  1
  H  2449  1  0.85597400  0.84780500  0.80066100  1
  H  2453  1  0.94863800  0.87033000  0.74620300  1
  H  2454  1  0.92325500  0.85782200  0.75253400  1
  H  2467  1  0.99494800  0.71025700  0.17538900  1
  H  2474  1  0.92648400  0.75395800  0.19882300  1
  H  2475  1  0.91739900  0.70380700  0.21925100  1
  H  2476  1  0.96817000  0.73836700  0.22900000  1
  H  2478  1  0.88751200  0.76949100  0.18913900  1
  H  2479  1  0.85659600  0.76095200  0.18948000  1
  H  2483  1  0.94918400  0.70595300  0.16800200  1
  H  2484  1  0.92367600  0.71240800  0.18034000  1
  H  2497  1  0.99411100  0.28639600  0.90298800  1
  H  2504  1  0.92553300  0.24369300  0.87763500  1
  H  2505  1  0.91751700  0.29462300  0.85897600  1
  H  2506  1  0.96798700  0.26044500  0.84816600  1
  H  2508  1  0.88612800  0.22811900  0.88660800  1
  H  2509  1  0.85539100  0.23693200  0.88646500  1
  H  2513  1  0.94825100  0.29022400  0.91039900  1
  H  2514  1  0.92289600  0.28421600  0.89771000  1
  H  2527  1  0.88631900  0.86336900  0.32667300  1
  H  2534  1  0.95485200  0.83867000  0.28347200  1
  H  2535  1  0.96301200  0.81922200  0.33410100  1
  H  2536  1  0.91245300  0.80904200  0.29971000  1
  H  2538  1  0.99423000  0.84783400  0.26797200  1
  H  2539  1  0.02502400  0.84744000  0.27669200  1
  H  2543  1  0.93217000  0.87070300  0.33065800  1
  H  2544  1  0.95753200  0.85812500  0.32443200  1
  H  2557  1  0.88617200  0.13531400  0.75042000  1
  H  2564  1  0.95462800  0.15956500  0.79381200  1
  H  2565  1  0.96313200  0.17939100  0.74338100  1
  H  2566  1  0.91247500  0.18930400  0.77798400  1
  H  2568  1  0.99386300  0.15018100  0.80932700  1
  H  2569  1  0.02470100  0.15055000  0.80066800  1
  H  2573  1  0.93199700  0.12804400  0.74620000  1
  H  2574  1  0.95739800  0.14054000  0.75252200  1
  H  2587  1  0.88571100  0.28804300  0.17538200  1
  H  2594  1  0.95417900  0.24434600  0.19882200  1
  H  2595  1  0.96325600  0.29449800  0.21924800  1
  H  2596  1  0.91248700  0.25993600  0.22899800  1
  H  2598  1  0.99315100  0.22881500  0.18914100  1
  H  2599  1  0.02406700  0.23735500  0.18948100  1
  H  2603  1  0.93147500  0.29234700  0.16799700  1
  H  2604  1  0.95698300  0.28589400  0.18033700  1
  H  2617  1  0.88649800  0.71182100  0.90298500  1
  H  2624  1  0.95505100  0.75452500  0.87763300  1
  H  2625  1  0.96317900  0.70358400  0.85902600  1
  H  2626  1  0.91267200  0.73776100  0.84816800  1
  H  2628  1  0.99440700  0.77012800  0.88663000  1
  H  2629  1  0.02516100  0.76134000  0.88651600  1
  H  2633  1  0.93234700  0.70798300  0.91040800  1
  H  2634  1  0.95771700  0.71398300  0.89772900  1
  H  2647  1  0.49508500  0.63220100  0.82577400  1
  H  2654  1  0.42541900  0.65906300  0.78471600  1
  H  2655  1  0.41826600  0.67566400  0.83640900  1
  H  2656  1  0.46798200  0.68830600  0.80318700  1
  H  2658  1  0.38571000  0.65080700  0.76903600  1
  H  2659  1  0.35506500  0.65081200  0.77797900  1
  H  2663  1  0.44932200  0.62416600  0.82891900  1
  H  2664  1  0.42375800  0.63700700  0.82361700  1
  H  2677  1  0.49535100  0.36578200  0.25124200  1
  H  2684  1  0.42573400  0.33943200  0.29255600  1
  H  2685  1  0.41825200  0.32236700  0.24105900  1
  H  2686  1  0.46804900  0.31001600  0.27455700  1
  H  2688  1  0.38616200  0.34793800  0.30824000  1
  H  2689  1  0.35547600  0.34795000  0.29935400  1
  H  2693  1  0.44961800  0.37378100  0.24783900  1
  H  2694  1  0.42400800  0.36103100  0.25326300  1
  H  2707  1  0.49556900  0.21149100  0.67234500  1
  H  2714  1  0.42594500  0.25282700  0.69836500  1
  H  2715  1  0.41804600  0.20141400  0.71561400  1
  H  2716  1  0.46791100  0.23463000  0.72811500  1
  H  2718  1  0.38658200  0.26856400  0.68968500  1
  H  2719  1  0.35584500  0.25975600  0.68957500  1
  H  2723  1  0.44988200  0.20818800  0.66418900  1
  H  2724  1  0.42419300  0.21361100  0.67687500  1
  H  2737  1  0.49491300  0.78542600  0.40575200  1
  H  2744  1  0.42523400  0.74491600  0.37824300  1
  H  2745  1  0.41816000  0.79688200  0.36251000  1
  H  2746  1  0.46781300  0.76394900  0.34921100  1
  H  2748  1  0.38552400  0.72915500  0.38631900  1
  H  2749  1  0.35493100  0.73816800  0.38660700  1
  H  2753  1  0.44914700  0.78837900  0.41386000  1
  H  2754  1  0.42358600  0.78331300  0.40092300  1
  H  2767  1  0.38557000  0.36610500  0.82577900  1
  H  2774  1  0.45524100  0.33924400  0.78472400  1
  H  2775  1  0.46239400  0.32264500  0.83641800  1
  H  2776  1  0.41268000  0.31000000  0.80319600  1
  H  2778  1  0.49494900  0.34750100  0.76904500  1
  H  2779  1  0.52559400  0.34749700  0.77798900  1
  H  2783  1  0.43133400  0.37414200  0.82892400  1
  H  2784  1  0.45689900  0.36130200  0.82362400  1
  H  2797  1  0.38530800  0.63259700  0.25124600  1
  H  2804  1  0.45494800  0.65894100  0.29254700  1
  H  2805  1  0.46245900  0.67597300  0.24104100  1
  H  2806  1  0.41266800  0.68836200  0.27453500  1
  H  2808  1  0.49450800  0.65043200  0.30824100  1
  H  2809  1  0.52519600  0.65040600  0.29936100  1
  H  2813  1  0.43103300  0.62458000  0.24784100  1
  H  2814  1  0.45665700  0.63732200  0.25325800  1
  H  2827  1  0.38508700  0.78682000  0.67234500  1
  H  2834  1  0.45471300  0.74548000  0.69835700  1
  H  2835  1  0.46261100  0.79689000  0.71561400  1
  H  2836  1  0.41274700  0.76366600  0.72810900  1
  H  2838  1  0.49407300  0.72974300  0.68967700  1
  H  2839  1  0.52481200  0.73854900  0.68956900  1
  H  2843  1  0.43077500  0.79013000  0.66419000  1
  H  2844  1  0.45646400  0.78470400  0.67687700  1
  H  2857  1  0.38570200  0.21280900  0.40575200  1
  H  2864  1  0.45536300  0.25330600  0.37822000  1
  H  2865  1  0.46253000  0.20132300  0.36256800  1
  H  2866  1  0.41285000  0.23425200  0.34920800  1
  H  2868  1  0.49502800  0.26909600  0.38631100  1
  H  2869  1  0.52563700  0.26010500  0.38663300  1
  H  2873  1  0.43145800  0.20985100  0.41387400  1
  H  2874  1  0.45703100  0.21490500  0.40094400  1
  C  1  1  0.09770900  0.11481100  0.30160000  1
  C  2  1  0.08403500  0.13089600  0.30021100  1
  C  3  1  0.07653500  0.14067100  0.31495400  1
  C  4  1  0.08381600  0.13480900  0.33188000  1
  C  5  1  0.09816200  0.11877200  0.33339200  1
  C  6  1  0.10462800  0.10899100  0.31843000  1
  C  9  1  0.10382900  0.10474000  0.28642300  1
  C  10  1  0.08524800  0.10378400  0.27245700  1
  C  11  1  0.09142100  0.09484900  0.25695300  1
  C  12  1  0.11656000  0.08581300  0.25526700  1
  C  13  1  0.13501400  0.08613400  0.26955800  1
  C  14  1  0.12864300  0.09565700  0.28470800  1
  C  23  1  0.15782800  0.07570700  0.26996300  1
  C  24  1  0.10816800  0.11310700  0.34913700  1
  C  25  1  0.05873100  0.15427100  0.31220400  1
  C  26  1  0.07410400  0.09758700  0.24310800  1
  C  31  1  0.09772000  0.88346400  0.77586200  1
  C  32  1  0.08406800  0.86737100  0.77726400  1
  C  33  1  0.07658300  0.85758600  0.76252500  1
  C  34  1  0.08386200  0.86343100  0.74559400  1
  C  35  1  0.09818500  0.87947600  0.74407300  1
  C  36  1  0.10463800  0.88927300  0.75902700  1
  C  39  1  0.10383300  0.89354700  0.79103000  1
  C  40  1  0.08524400  0.89451700  0.80499100  1
  C  41  1  0.09141100  0.90346000  0.82049200  1
  C  42  1  0.11654000  0.91251100  0.82216500  1
  C  43  1  0.13500400  0.91217400  0.80787900  1
  C  44  1  0.12864400  0.90263300  0.79274000  1
  C  53  1  0.15783500  0.92258500  0.80747700  1
  C  54  1  0.10818700  0.88513600  0.72832500  1
  C  55  1  0.05880400  0.84397200  0.76528400  1
  C  56  1  0.07409000  0.90073600  0.83433800  1
  C  61  1  0.09735900  0.73624000  0.15472200  1
  C  62  1  0.08390700  0.73768100  0.17087800  1
  C  63  1  0.07672000  0.72296800  0.18080600  1
  C  64  1  0.08409200  0.70603700  0.17500100  1
  C  65  1  0.09818300  0.70448100  0.15887600  1
  C  66  1  0.10435500  0.71940400  0.14896200  1
  C  69  1  0.10312600  0.75135900  0.14448600  1
  C  70  1  0.08431100  0.76519400  0.14346600  1
  C  71  1  0.09007300  0.78062400  0.13428000  1
  C  72  1  0.11505200  0.78232100  0.12505700  1
  C  73  1  0.13381500  0.76820000  0.12555200  1
  C  74  1  0.12783000  0.75313600  0.13529800  1
  C  83  1  0.15669700  0.76792300  0.11519700  1
  C  84  1  0.10809400  0.68872400  0.15318000  1
  C  85  1  0.05897500  0.72573000  0.19445400  1
  C  86  1  0.07257600  0.79441900  0.13697300  1
  C  91  1  0.09757300  0.26195900  0.92276600  1
  C  92  1  0.08388900  0.26051100  0.90668900  1
  C  93  1  0.07644300  0.27522200  0.89684800  1
  C  94  1  0.08379900  0.29216300  0.90262100  1
  C  95  1  0.09819500  0.29372600  0.91863400  1
  C  96  1  0.10460100  0.27880400  0.92849000  1
  C  99  1  0.10352900  0.24683600  0.93295600  1
  C  100  1  0.08479400  0.23296200  0.93403200  1
  C  101  1  0.09073600  0.21751600  0.94314200  1
  C  102  1  0.11580100  0.21585700  0.95227900  1
  C  103  1  0.13446300  0.23003500  0.95177500  1
  C  104  1  0.12831400  0.24509700  0.94206500  1
  C  113  1  0.15739100  0.23037600  0.96210000  1
  C  114  1  0.10819700  0.30949500  0.92423700  1
  C  115  1  0.05853400  0.27244700  0.88331200  1
  C  116  1  0.07324800  0.20370300  0.94053900  1
  C  121  1  0.78295100  0.88349500  0.30160100  1
  C  122  1  0.79662400  0.86741000  0.30021300  1
  C  123  1  0.80412300  0.85763400  0.31495500  1
  C  124  1  0.79684000  0.86349500  0.33188100  1
  C  125  1  0.78249400  0.87953300  0.33339300  1
  C  126  1  0.77603000  0.88931400  0.31843100  1
  C  129  1  0.77683200  0.89356700  0.28642400  1
  C  130  1  0.79541300  0.89452200  0.27245800  1
  C  131  1  0.78924200  0.90345800  0.25695600  1
  C  132  1  0.76410600  0.91249400  0.25526800  1
  C  133  1  0.74565100  0.91217400  0.26955900  1
  C  134  1  0.75201900  0.90265100  0.28470900  1
  C  143  1  0.72283700  0.92260100  0.26996300  1
  C  144  1  0.77248400  0.88519700  0.34913800  1
  C  145  1  0.82192500  0.84403400  0.31220700  1
  C  146  1  0.80655900  0.90071900  0.24311000  1
  C  151  1  0.78296100  0.11495200  0.77591900  1
  C  152  1  0.79661200  0.13104300  0.77732200  1
  C  153  1  0.80408600  0.14083200  0.76258300  1
  C  154  1  0.79679700  0.13499200  0.74565200  1
  C  155  1  0.78247900  0.11894500  0.74413100  1
  C  156  1  0.77603800  0.10914400  0.75908400  1
  C  159  1  0.77687900  0.10485200  0.79108100  1
  C  160  1  0.79549900  0.10386000  0.80502500  1
  C  161  1  0.78939400  0.09486300  0.82050600  1
  C  162  1  0.76429500  0.08577000  0.82216200  1
  C  163  1  0.74577400  0.08616100  0.80790800  1
  C  164  1  0.75207800  0.09575600  0.79279300  1
  C  173  1  0.72294200  0.07575200  0.80750000  1
  C  174  1  0.77249200  0.11327900  0.72838200  1
  C  175  1  0.82187900  0.15444000  0.76533900  1
  C  176  1  0.80678300  0.09753000  0.83433800  1
  C  181  1  0.78329600  0.26206100  0.15471400  1
  C  182  1  0.79675200  0.26061800  0.17086900  1
  C  183  1  0.80393800  0.27532900  0.18079900  1
  C  184  1  0.79656300  0.29226000  0.17499700  1
  C  185  1  0.78247100  0.29381900  0.15887300  1
  C  186  1  0.77630000  0.27889800  0.14895700  1
  C  189  1  0.77752900  0.24694400  0.14447600  1
  C  190  1  0.79634400  0.23310900  0.14345400  1
  C  191  1  0.79058100  0.21767900  0.13426600  1
  C  192  1  0.76560300  0.21598500  0.12504200  1
  C  193  1  0.74683900  0.23010500  0.12554000  1
  C  194  1  0.75282600  0.24516700  0.13528800  1
  C  203  1  0.72395000  0.23038500  0.11518800  1
  C  204  1  0.77256100  0.30957600  0.15317800  1
  C  205  1  0.82168400  0.27256600  0.19444700  1
  C  206  1  0.80807900  0.20388500  0.13695600  1
  C  211  1  0.78307300  0.73634000  0.92276200  1
  C  212  1  0.79675400  0.73777700  0.90668400  1
  C  213  1  0.80419400  0.72306200  0.89684800  1
  C  214  1  0.79683000  0.70612400  0.90262900  1
  C  215  1  0.78243900  0.70457000  0.91864500  1
  C  216  1  0.77604400  0.71949700  0.92849600  1
  C  219  1  0.77712100  0.75146800  0.93294600  1
  C  220  1  0.79585800  0.76534200  0.93401600  1
  C  221  1  0.78992100  0.78078900  0.94312200  1
  C  222  1  0.76485900  0.78245100  0.95226200  1
  C  223  1  0.74619500  0.76827600  0.95176300  1
  C  224  1  0.75233800  0.75321100  0.94205600  1
  C  233  1  0.72327000  0.76793800  0.96209200  1
  C  234  1  0.77243300  0.68880600  0.92425500  1
  C  235  1  0.82210400  0.72582500  0.88331200  1
  C  236  1  0.80741200  0.79460000  0.94051500  1
  C  241  1  0.78876200  0.88184500  0.77427400  1
  C  242  1  0.80016400  0.86508700  0.77597500  1
  C  243  1  0.80556100  0.85440200  0.76145800  1
  C  244  1  0.79814000  0.86006800  0.74448000  1
  C  245  1  0.78585700  0.87676700  0.74269400  1
  C  246  1  0.78170500  0.88741600  0.75738300  1
  C  249  1  0.78512700  0.89285200  0.78913900  1
  C  250  1  0.80451100  0.89319300  0.80268400  1
  C  251  1  0.80074700  0.90326600  0.81781000  1
  C  252  1  0.77744600  0.91414700  0.81943100  1
  C  253  1  0.75839600  0.91457100  0.80543500  1
  C  254  1  0.76214300  0.90371900  0.79083700  1
  C  263  1  0.73754100  0.92660100  0.80450600  1
  C  264  1  0.77590400  0.88252000  0.72696600  1
  C  265  1  0.82182200  0.83997500  0.76410500  1
  C  266  1  0.81822300  0.89998300  0.83147400  1
  C  271  1  0.78862400  0.11657900  0.30324200  1
  C  272  1  0.80000000  0.13334300  0.30152100  1
  C  273  1  0.80545200  0.14402700  0.31603100  1
  C  274  1  0.79808100  0.13837000  0.33302100  1
  C  275  1  0.78580200  0.12167100  0.33482400  1
  C  276  1  0.78161200  0.11101600  0.32014400  1
  C  279  1  0.78494600  0.10556800  0.28838600  1
  C  280  1  0.80428500  0.10523300  0.27481300  1
  C  281  1  0.80046900  0.09516700  0.25968700  1
  C  282  1  0.77718200  0.08426800  0.25810500  1
  C  283  1  0.75818800  0.08383200  0.27213100  1
  C  284  1  0.76197200  0.09468600  0.28672400  1
  C  293  1  0.73736800  0.07178400  0.27309500  1
  C  294  1  0.77586300  0.11592800  0.35055900  1
  C  295  1  0.82168400  0.15846300  0.31334400  1
  C  296  1  0.81789000  0.09845300  0.24599500  1
  C  301  1  0.78917100  0.26378800  0.92164900  1
  C  302  1  0.80032700  0.26199700  0.90483300  1
  C  303  1  0.80559000  0.27645600  0.89403800  1
  C  304  1  0.79828000  0.29346600  0.89967200  1
  C  305  1  0.78621000  0.29533700  0.91642600  1
  C  306  1  0.78218300  0.28070500  0.92717100  1
  C  309  1  0.78562100  0.24897400  0.93272900  1
  C  310  1  0.80502500  0.23544100  0.93307600  1
  C  311  1  0.80126600  0.22030200  0.94313300  1
  C  312  1  0.77789500  0.21865200  0.95395600  1
  C  313  1  0.75888900  0.23267500  0.95444600  1
  C  314  1  0.76266700  0.24729200  0.94362100  1
  C  323  1  0.73791000  0.23355500  0.96640400  1
  C  324  1  0.77631200  0.31108900  0.92215100  1
  C  325  1  0.82158400  0.27367700  0.87950200  1
  C  326  1  0.81871900  0.20662500  0.93979700  1
  C  331  1  0.78917900  0.73468700  0.15559100  1
  C  332  1  0.80058100  0.73643300  0.17234700  1
  C  333  1  0.80583600  0.72195300  0.18311100  1
  C  334  1  0.79826600  0.70497400  0.17752800  1
  C  335  1  0.78596400  0.70315000  0.16084000  1
  C  336  1  0.78195300  0.71779700  0.15011200  1
  C  339  1  0.78562300  0.74951600  0.14452800  1
  C  340  1  0.80510000  0.76300400  0.14411000  1
  C  341  1  0.80134300  0.77815000  0.13406400  1
  C  342  1  0.77793600  0.77983400  0.12328000  1
  C  343  1  0.75884700  0.76585500  0.12286100  1
  C  344  1  0.76259200  0.75125200  0.13370800  1
  C  353  1  0.73782300  0.76500400  0.11093800  1
  C  354  1  0.77587100  0.68742500  0.15517700  1
  C  355  1  0.82202900  0.72462200  0.19756400  1
  C  356  1  0.81889800  0.79178700  0.13730800  1
  C  361  1  0.09191600  0.11648600  0.77427900  1
  C  362  1  0.08052100  0.13324600  0.77598000  1
  C  363  1  0.07512200  0.14393300  0.76146500  1
  C  364  1  0.08253600  0.13826300  0.74448500  1
  C  365  1  0.09481400  0.12156300  0.74269800  1
  C  366  1  0.09896800  0.11091400  0.75738700  1
  C  369  1  0.09555000  0.10548000  0.78914300  1
  C  370  1  0.07616300  0.10513600  0.80268600  1
  C  371  1  0.07992500  0.09506100  0.81781000  1
  C  372  1  0.10322700  0.08418100  0.81943400  1
  C  373  1  0.12228200  0.08376200  0.80543900  1
  C  374  1  0.11853600  0.09461400  0.79084100  1
  C  383  1  0.14314100  0.07173600  0.80451300  1
  C  384  1  0.10475900  0.11580700  0.72696900  1
  C  385  1  0.05887000  0.15836300  0.76411700  1
  C  386  1  0.06244500  0.09834100  0.83147400  1
  C  391  1  0.09202600  0.88173700  0.30324900  1
  C  392  1  0.08065100  0.86497200  0.30152900  1
  C  393  1  0.07520100  0.85428900  0.31603900  1
  C  394  1  0.08257100  0.85994700  0.33302800  1
  C  395  1  0.09484900  0.87664600  0.33483000  1
  C  396  1  0.09903500  0.88730200  0.32015000  1
  C  399  1  0.09570300  0.89274600  0.28839100  1
  C  400  1  0.07636600  0.89308300  0.27481800  1
  C  401  1  0.08018200  0.90314700  0.25969200  1
  C  402  1  0.10347000  0.91404400  0.25810900  1
  C  403  1  0.12246300  0.91448000  0.27213600  1
  C  404  1  0.11867900  0.90362800  0.28672900  1
  C  413  1  0.14328700  0.92652700  0.27309800  1
  C  414  1  0.10479100  0.88239000  0.35056600  1
  C  415  1  0.05897200  0.83985200  0.31335300  1
  C  416  1  0.06276100  0.89986100  0.24600100  1
  C  421  1  0.09146400  0.73453800  0.92172000  1
  C  422  1  0.08028300  0.73632600  0.90491000  1
  C  423  1  0.07504500  0.72186200  0.89411200  1
  C  424  1  0.08239300  0.70485700  0.89974100  1
  C  425  1  0.09447500  0.70299300  0.91649300  1
  C  426  1  0.09848600  0.71762600  0.92723700  1
  C  429  1  0.09500800  0.74935300  0.93279800  1
  C  430  1  0.07557800  0.76286900  0.93316800  1
  C  431  1  0.07933200  0.77800800  0.94322800  1
  C  432  1  0.10273100  0.77967800  0.95402200  1
  C  433  1  0.12176400  0.76566900  0.95449200  1
  C  434  1  0.11798600  0.75105100  0.94367000  1
  C  443  1  0.14276700  0.76480100  0.96643300  1
  C  444  1  0.10439600  0.68724400  0.92221300  1
  C  445  1  0.05904800  0.72463100  0.87957600  1
  C  446  1  0.06183700  0.79166900  0.93992600  1
  C  451  1  0.09148400  0.26362200  0.15559700  1
  C  452  1  0.08008100  0.26187400  0.17235100  1
  C  453  1  0.07482500  0.27635500  0.18311500  1
  C  454  1  0.08239600  0.29333400  0.17753300  1
  C  455  1  0.09469800  0.29515900  0.16084500  1
  C  456  1  0.09870900  0.28051400  0.15011600  1
  C  459  1  0.09504100  0.24879400  0.14453200  1
  C  460  1  0.07556400  0.23530500  0.14411400  1
  C  461  1  0.07932400  0.22015900  0.13406600  1
  C  462  1  0.10273200  0.21847600  0.12328400  1
  C  463  1  0.12182000  0.23245400  0.12286600  1
  C  464  1  0.11807300  0.24705700  0.13371300  1
  C  473  1  0.14284600  0.23330600  0.11094400  1
  C  474  1  0.10479300  0.31088400  0.15518400  1
  C  475  1  0.05863000  0.27368600  0.19756800  1
  C  476  1  0.06176800  0.20652200  0.13731000  1
  C  481  1  0.59892700  0.61446700  0.80210300  1
  C  482  1  0.58477400  0.63041000  0.80100100  1
  C  483  1  0.57752900  0.64003500  0.81589400  1
  C  484  1  0.58563100  0.63420900  0.83267000  1
  C  485  1  0.60082300  0.61847300  0.83387400  1
  C  486  1  0.60685200  0.60876100  0.81879800  1
  C  489  1  0.60463300  0.60447600  0.78678700  1
  C  490  1  0.58563500  0.60356600  0.77304000  1
  C  491  1  0.59140600  0.59480000  0.75737900  1
  C  492  1  0.61651600  0.58581900  0.75531400  1
  C  493  1  0.63536700  0.58603700  0.76939100  1
  C  494  1  0.62943000  0.59544400  0.78468400  1
  C  503  1  0.65828100  0.57569500  0.76939700  1
  C  504  1  0.61231600  0.61308000  0.84928600  1
  C  505  1  0.55918800  0.65339700  0.81348200  1
  C  506  1  0.57385300  0.59778000  0.74370700  1
  C  511  1  0.59899400  0.38374400  0.27538900  1
  C  512  1  0.58488500  0.36778400  0.27650900  1
  C  513  1  0.57768200  0.35813800  0.26162300  1
  C  514  1  0.58579200  0.36394100  0.24484000  1
  C  515  1  0.60093600  0.37969400  0.24362600  1
  C  516  1  0.60692100  0.38943600  0.25869000  1
  C  519  1  0.60465900  0.39376100  0.29069100  1
  C  520  1  0.58563500  0.39468600  0.30442400  1
  C  521  1  0.59136800  0.40347600  0.32007600  1
  C  522  1  0.61645100  0.41249300  0.32213100  1
  C  523  1  0.63533100  0.41225700  0.30807100  1
  C  524  1  0.62943800  0.40281300  0.29279500  1
  C  533  1  0.65825000  0.42259200  0.30807100  1
  C  534  1  0.61241500  0.38508900  0.22820800  1
  C  535  1  0.55935300  0.34476700  0.26404400  1
  C  536  1  0.57379900  0.40051400  0.33374200  1
  C  541  1  0.59863000  0.23591000  0.65433500  1
  C  542  1  0.58463500  0.23706500  0.67033200  1
  C  543  1  0.57765100  0.22220600  0.68009700  1
  C  544  1  0.58586700  0.20542400  0.67434100  1
  C  545  1  0.60086100  0.20417700  0.65853300  1
  C  546  1  0.60663200  0.21920900  0.64869500  1
  C  549  1  0.60405600  0.25116400  0.64419200  1
  C  550  1  0.58487500  0.26480200  0.64319500  1
  C  551  1  0.59029700  0.28037200  0.63416100  1
  C  552  1  0.61525400  0.28239900  0.62498600  1
  C  553  1  0.63436800  0.26847500  0.62541200  1
  C  554  1  0.62876300  0.25329700  0.63507100  1
  C  563  1  0.65730100  0.26851800  0.61510500  1
  C  564  1  0.61232800  0.18875800  0.65312700  1
  C  565  1  0.55930200  0.22463200  0.69347400  1
  C  566  1  0.57259600  0.29401400  0.63706600  1
  C  571  1  0.59880500  0.76242300  0.42316600  1
  C  572  1  0.58465800  0.76129300  0.40722100  1
  C  573  1  0.57746400  0.77617300  0.39756100  1
  C  574  1  0.58562100  0.79295500  0.40333900  1
  C  575  1  0.60084300  0.79417700  0.41906100  1
  C  576  1  0.60680100  0.77912100  0.42882000  1
  C  579  1  0.60437900  0.74714100  0.43323800  1
  C  580  1  0.58526500  0.73346600  0.43423700  1
  C  581  1  0.59083300  0.71785800  0.44316400  1
  C  582  1  0.61585400  0.71584200  0.45227300  1
  C  583  1  0.63488400  0.72981700  0.45188500  1
  C  584  1  0.62914500  0.74502000  0.44229600  1
  C  593  1  0.65787000  0.72979000  0.46215800  1
  C  594  1  0.61233600  0.80959800  0.42442900  1
  C  595  1  0.55904600  0.77376100  0.38424600  1
  C  596  1  0.57313200  0.70420900  0.44030700  1
  C  601  1  0.28173300  0.38384000  0.80210500  1
  C  602  1  0.29588600  0.36789500  0.80100500  1
  C  603  1  0.30312800  0.35827000  0.81589800  1
  C  604  1  0.29502400  0.36409600  0.83267400  1
  C  605  1  0.27983300  0.37983300  0.83387600  1
  C  606  1  0.27380600  0.38954400  0.81880000  1
  C  609  1  0.27602900  0.39383000  0.78678900  1
  C  610  1  0.29502800  0.39474000  0.77304400  1
  C  611  1  0.28925700  0.40350500  0.75738200  1
  C  612  1  0.26415000  0.41248900  0.75531700  1
  C  613  1  0.24529800  0.41227100  0.76939300  1
  C  614  1  0.25123400  0.40286400  0.78468500  1
  C  623  1  0.22238500  0.42261300  0.76939900  1
  C  624  1  0.26833800  0.38522500  0.84928900  1
  C  625  1  0.32147100  0.34490900  0.81348600  1
  C  626  1  0.30681000  0.40052600  0.74371000  1
  C  631  1  0.28169200  0.61466400  0.27542000  1
  C  632  1  0.29579900  0.63062400  0.27653500  1
  C  633  1  0.30299400  0.64026900  0.26164600  1
  C  634  1  0.29487800  0.63446100  0.24486500  1
  C  635  1  0.27973900  0.61870600  0.24365600  1
  C  636  1  0.27376300  0.60896800  0.25872300  1
  C  639  1  0.27605100  0.60463700  0.29072100  1
  C  640  1  0.29509800  0.60370100  0.30443900  1
  C  641  1  0.28942000  0.59486500  0.32007700  1
  C  642  1  0.26437100  0.58580300  0.32211400  1
  C  643  1  0.24544500  0.58608200  0.30807900  1
  C  644  1  0.25128500  0.59557400  0.29282600  1
  C  653  1  0.22252500  0.57574600  0.30807400  1
  C  654  1  0.26827300  0.61330000  0.22823800  1
  C  655  1  0.32133100  0.65363500  0.26405900  1
  C  656  1  0.30704800  0.59778300  0.33373200  1
  C  661  1  0.28202500  0.76238900  0.65432900  1
  C  662  1  0.29602200  0.76123200  0.67032400  1
  C  663  1  0.30300600  0.77609000  0.68009200  1
  C  664  1  0.29478700  0.79287200  0.67433900  1
  C  665  1  0.27979000  0.79412200  0.65853200  1
  C  666  1  0.27402100  0.77909000  0.64869100  1
  C  669  1  0.27659800  0.74713600  0.64418400  1
  C  670  1  0.29577800  0.73349800  0.64318300  1
  C  671  1  0.29035300  0.71792900  0.63415000  1
  C  672  1  0.26539300  0.71590400  0.62497700  1
  C  673  1  0.24627800  0.72982700  0.62540600  1
  C  674  1  0.25188800  0.74500500  0.63506600  1
  C  683  1  0.22333600  0.72978600  0.61510400  1
  C  684  1  0.26832100  0.80954100  0.65312800  1
  C  685  1  0.32135600  0.77366300  0.69346800  1
  C  686  1  0.30805400  0.70428700  0.63705100  1
  C  691  1  0.28184000  0.23588000  0.42315800  1
  C  692  1  0.29598600  0.23700300  0.40721200  1
  C  693  1  0.30317300  0.22211800  0.39755400  1
  C  694  1  0.29501000  0.20534000  0.40333700  1
  C  695  1  0.27979200  0.20412500  0.41906100  1
  C  696  1  0.27384200  0.21918400  0.42881800  1
  C  699  1  0.27627100  0.25116500  0.43322500  1
  C  700  1  0.29538600  0.26483900  0.43422000  1
  C  701  1  0.28982400  0.28044900  0.44314500  1
  C  702  1  0.26480800  0.28246800  0.45225700  1
  C  703  1  0.24577400  0.26849500  0.45187300  1
  C  704  1  0.25150600  0.25328900  0.44228400  1
  C  713  1  0.22279100  0.26852500  0.46215000  1
  C  714  1  0.26829500  0.18870600  0.42443700  1
  C  715  1  0.32159700  0.22452200  0.38424200  1
  C  716  1  0.30752800  0.29409600  0.44028600  1
  C  721  1  0.28754000  0.38260700  0.27383600  1
  C  722  1  0.29964900  0.36600500  0.27509800  1
  C  723  1  0.30492000  0.35560900  0.26035200  1
  C  724  1  0.29649600  0.36135400  0.24359600  1
  C  725  1  0.28311500  0.37774400  0.24228000  1
  C  726  1  0.27935300  0.38819200  0.25715200  1
  C  729  1  0.28411400  0.39336000  0.28893200  1
  C  730  1  0.30381500  0.39359500  0.30230000  1
  C  731  1  0.30019200  0.40327600  0.31769100  1
  C  732  1  0.27672400  0.41393200  0.31977000  1
  C  733  1  0.25742500  0.41460900  0.30592000  1
  C  734  1  0.26101800  0.40406300  0.29107800  1
  C  743  1  0.23635100  0.42653700  0.30541500  1
  C  744  1  0.27142600  0.38333600  0.22698500  1
  C  745  1  0.32181500  0.34139700  0.26253400  1
  C  746  1  0.31794800  0.39975600  0.33115500  1
  C  751  1  0.28736600  0.61586300  0.80364800  1
  C  752  1  0.29943000  0.63247600  0.80236800  1
  C  753  1  0.30474400  0.64286900  0.81711100  1
  C  754  1  0.29637800  0.63712400  0.83387900  1
  C  755  1  0.28302500  0.62072600  0.83520800  1
  C  756  1  0.27923900  0.61027100  0.82034200  1
  C  759  1  0.28391700  0.60510300  0.78856000  1
  C  760  1  0.30358700  0.60487600  0.77517200  1
  C  761  1  0.29993800  0.59519100  0.75978500  1
  C  762  1  0.27649400  0.58450600  0.75774300  1
  C  763  1  0.25723600  0.58382000  0.77161300  1
  C  764  1  0.26084100  0.59437700  0.78644500  1
  C  773  1  0.23619900  0.57186700  0.77215000  1
  C  774  1  0.27138000  0.61512700  0.85051300  1
  C  775  1  0.32161400  0.65709200  0.81489600  1
  C  776  1  0.31765300  0.59870900  0.74630000  1
  C  781  1  0.28784900  0.76404000  0.42245800  1
  C  782  1  0.29976900  0.76270800  0.40580900  1
  C  783  1  0.30493100  0.77741300  0.39532500  1
  C  784  1  0.29661100  0.79419500  0.40106000  1
  C  785  1  0.28339900  0.79557300  0.41750400  1
  C  786  1  0.27971900  0.78074100  0.42801900  1
  C  789  1  0.28447800  0.74898100  0.43326200  1
  C  790  1  0.30423000  0.73564500  0.43353800  1
  C  791  1  0.30061500  0.72024200  0.44321000  1
  C  792  1  0.27704700  0.71812000  0.45377400  1
  C  793  1  0.25772600  0.73195900  0.45444700  1
  C  794  1  0.26135500  0.74682200  0.44393500  1
  C  803  1  0.23650400  0.73240700  0.46627700  1
  C  804  1  0.27175300  0.81088700  0.42307900  1
  C  805  1  0.32158100  0.77512100  0.38100200  1
  C  806  1  0.31839700  0.70678600  0.43967200  1
  C  811  1  0.28784500  0.23434400  0.65481000  1
  C  812  1  0.29995600  0.23562400  0.67140900  1
  C  813  1  0.30509700  0.22089500  0.68185700  1
  C  814  1  0.29655500  0.20414800  0.67616000  1
  C  815  1  0.28315500  0.20282300  0.65977700  1
  C  816  1  0.27952200  0.21767000  0.64927600  1
  C  819  1  0.28447200  0.24942400  0.64402900  1
  C  820  1  0.30426800  0.26273100  0.64371800  1
  C  821  1  0.30064500  0.27815300  0.63407700  1
  C  822  1  0.27705900  0.28030500  0.62353800  1
  C  823  1  0.25769600  0.26648900  0.62288700  1
  C  824  1  0.26130300  0.25163000  0.63340600  1
  C  833  1  0.23644500  0.26607500  0.61107900  1
  C  834  1  0.27135500  0.18754100  0.65423800  1
  C  835  1  0.32190800  0.22308000  0.69611000  1
  C  836  1  0.31849900  0.29157900  0.63755200  1
  C  841  1  0.59313700  0.61572400  0.27384000  1
  C  842  1  0.58103500  0.63232700  0.27510300  1
  C  843  1  0.57576300  0.64272600  0.26035700  1
  C  844  1  0.58418000  0.63697800  0.24360100  1
  C  845  1  0.59755500  0.62058600  0.24228400  1
  C  846  1  0.60131600  0.61013700  0.25715600  1
  C  849  1  0.59656100  0.60497100  0.28893500  1
  C  850  1  0.57685900  0.60473300  0.30230100  1
  C  851  1  0.58048000  0.59505000  0.31769100  1
  C  852  1  0.60394800  0.58439400  0.31977000  1
  C  853  1  0.62325000  0.58372200  0.30592300  1
  C  854  1  0.61966000  0.59426900  0.29108200  1
  C  863  1  0.64433100  0.57179800  0.30542000  1
  C  864  1  0.60923500  0.61499100  0.22698800  1
  C  865  1  0.55887700  0.65694200  0.26254600  1
  C  866  1  0.56272000  0.59856900  0.33115400  1
  C  871  1  0.59328600  0.38245400  0.80365500  1
  C  872  1  0.58122400  0.36584000  0.80237800  1
  C  873  1  0.57591000  0.35544800  0.81712200  1
  C  874  1  0.58427400  0.36119600  0.83388900  1
  C  875  1  0.59762400  0.37759600  0.83521700  1
  C  876  1  0.60140800  0.38804800  0.82035000  1
  C  879  1  0.59673400  0.39321200  0.78856600  1
  C  880  1  0.57706600  0.39343800  0.77517900  1
  C  881  1  0.58071600  0.40312100  0.75979000  1
  C  882  1  0.60415900  0.41380500  0.75774700  1
  C  883  1  0.62341900  0.41449300  0.77161800  1
  C  884  1  0.61981200  0.40393700  0.78645200  1
  C  893  1  0.64445500  0.42644400  0.77215400  1
  C  894  1  0.60927000  0.38319700  0.85052100  1
  C  895  1  0.55904400  0.34122300  0.81490900  1
  C  896  1  0.56300000  0.39960100  0.74630700  1
  C  901  1  0.59279200  0.23428300  0.42252200  1
  C  902  1  0.58084800  0.23561100  0.40587800  1
  C  903  1  0.57571100  0.22090400  0.39539200  1
  C  904  1  0.58406400  0.20412700  0.40112000  1
  C  905  1  0.59729100  0.20275400  0.41755900  1
  C  906  1  0.60095700  0.21758700  0.42807700  1
  C  909  1  0.59616100  0.24934400  0.43332300  1
  C  910  1  0.57638900  0.26266600  0.43361900  1
  C  911  1  0.58000400  0.27807000  0.44329000  1
  C  912  1  0.60359800  0.28021000  0.45382400  1
  C  913  1  0.62293900  0.26638300  0.45448200  1
  C  914  1  0.61930400  0.25151700  0.44397600  1
  C  923  1  0.64418600  0.26594700  0.46629500  1
  C  924  1  0.60896300  0.18744500  0.42312900  1
  C  925  1  0.55905600  0.22318700  0.38106800  1
  C  926  1  0.56218500  0.29151300  0.43978300  1
  C  931  1  0.59282000  0.76396200  0.65481500  1
  C  932  1  0.58070900  0.76268100  0.67141400  1
  C  933  1  0.57556400  0.77740900  0.68186400  1
  C  934  1  0.58410700  0.79415700  0.67616900  1
  C  935  1  0.59750800  0.79548400  0.65978400  1
  C  936  1  0.60114400  0.78063600  0.64928400  1
  C  939  1  0.59619600  0.74888300  0.64403500  1
  C  940  1  0.57640000  0.73557500  0.64372100  1
  C  941  1  0.58002300  0.72015600  0.63408000  1
  C  942  1  0.60360900  0.71800400  0.62354000  1
  C  943  1  0.62297200  0.73182000  0.62289100  1
  C  944  1  0.61936500  0.74667900  0.63341100  1
  C  953  1  0.64422300  0.73223500  0.61108400  1
  C  954  1  0.60930800  0.81076500  0.65424700  1
  C  955  1  0.55874900  0.77522300  0.69611400  1
  C  956  1  0.56216700  0.70672900  0.63755200  1
  C  961  1  0.14820400  0.95794300  0.27358500  1
  C  962  1  0.13261300  0.97218900  0.26778200  1
  C  963  1  0.14345200  0.98903700  0.26933600  1
  C  964  1  0.16932700  0.99199300  0.27675200  1
  C  965  1  0.18508400  0.97770000  0.28265700  1
  C  966  1  0.17423200  0.96074700  0.28081900  1
  C  968  1  0.17664600  0.00963000  0.27908900  1
  C  969  1  0.16746700  0.01823000  0.29413100  1
  C  970  1  0.16284400  0.03634000  0.29420800  1
  C  971  1  0.16793900  0.04597900  0.27879900  1
  C  972  1  0.17914500  0.03766900  0.26396600  1
  C  973  1  0.18364400  0.01954200  0.26438500  1
  C  991  1  0.14817200  0.04033200  0.80406300  1
  C  992  1  0.13269900  0.02607500  0.80996700  1
  C  993  1  0.14358900  0.00924100  0.80840500  1
  C  994  1  0.16939800  0.00631200  0.80088600  1
  C  995  1  0.18504000  0.02061500  0.79488400  1
  C  996  1  0.17414200  0.03755500  0.79673400  1
  C  998  1  0.17674300  0.98868400  0.79854000  1
  C  999  1  0.16749800  0.98013100  0.78347500  1
  C  1000  1  0.16283000  0.96202600  0.78334700  1
  C  1001  1  0.16798400  0.95232900  0.79871000  1
  C  1002  1  0.17930100  0.96057700  0.81354000  1
  C  1003  1  0.18385700  0.97869900  0.81316900  1
  C  1021  1  0.14889100  0.76544500  0.99767700  1
  C  1022  1  0.13517900  0.77324700  0.01175200  1
  C  1023  1  0.14647600  0.77191000  0.02849700  1
  C  1024  1  0.17086600  0.76268700  0.03156700  1
  C  1025  1  0.18463100  0.75470300  0.01743800  1
  C  1026  1  0.17349000  0.75642800  0.00055000  1
  C  1028  1  0.17759300  0.75996900  0.04926300  1
  C  1029  1  0.16768000  0.74484900  0.05740900  1
  C  1030  1  0.16239200  0.74444800  0.07544200  1
  C  1031  1  0.16773100  0.75954300  0.08552100  1
  C  1032  1  0.17982400  0.77435700  0.07770600  1
  C  1033  1  0.18494900  0.77427700  0.05964500  1
  C  1051  1  0.14870000  0.23308400  0.07964100  1
  C  1052  1  0.13435800  0.22599200  0.06544500  1
  C  1053  1  0.14554900  0.22746200  0.04868300  1
  C  1054  1  0.17046900  0.23612000  0.04573100  1
  C  1055  1  0.18491400  0.24336200  0.05998000  1
  C  1056  1  0.17382700  0.24152400  0.07687100  1
  C  1058  1  0.17750500  0.23878400  0.02808100  1
  C  1059  1  0.16789200  0.25389200  0.01979000  1
  C  1060  1  0.16284100  0.25417900  0.00172800  1
  C  1061  1  0.16808300  0.23896700  0.99181200  1
  C  1062  1  0.17990000  0.22414400  0.99979100  1
  C  1063  1  0.18484700  0.22434500  0.01787500  1
  C  1081  1  0.73245600  0.04036800  0.27358500  1
  C  1082  1  0.74805400  0.02612200  0.26778900  1
  C  1083  1  0.73721800  0.00927400  0.26934200  1
  C  1084  1  0.71133900  0.00631700  0.27675500  1
  C  1085  1  0.69557700  0.02060800  0.28265300  1
  C  1086  1  0.70642600  0.03756200  0.28081400  1
  C  1088  1  0.70402200  0.98868000  0.27909000  1
  C  1089  1  0.71320100  0.98007900  0.29413200  1
  C  1090  1  0.71782400  0.96196900  0.29420900  1
  C  1091  1  0.71272700  0.95233000  0.27879900  1
  C  1092  1  0.70152300  0.96064100  0.26396600  1
  C  1093  1  0.69702600  0.97876800  0.26438500  1
  C  1111  1  0.73251900  0.95800400  0.80406800  1
  C  1112  1  0.74797300  0.97225500  0.81000700  1
  C  1113  1  0.73709600  0.98909100  0.80843900  1
  C  1114  1  0.71132100  0.99203000  0.80087500  1
  C  1115  1  0.69569900  0.97773300  0.79483700  1
  C  1116  1  0.70658200  0.96079000  0.79669800  1
  C  1118  1  0.70400400  0.00966100  0.79851400  1
  C  1119  1  0.71332900  0.01821000  0.78346900  1
  C  1120  1  0.71801100  0.03631300  0.78334700  1
  C  1121  1  0.71278800  0.04601300  0.79869800  1
  C  1122  1  0.70138700  0.03777000  0.81350700  1
  C  1123  1  0.69682300  0.01965000  0.81312900  1
  C  1141  1  0.73182200  0.23291000  0.99764800  1
  C  1142  1  0.74552500  0.22508400  0.01171600  1
  C  1143  1  0.73423400  0.22641700  0.02846400  1
  C  1144  1  0.70986200  0.23565500  0.03154400  1
  C  1145  1  0.69610900  0.24366300  0.01742300  1
  C  1146  1  0.70724300  0.24194300  0.00053300  1
  C  1148  1  0.70314200  0.23836500  0.04924300  1
  C  1149  1  0.71304800  0.25348200  0.05739600  1
  C  1150  1  0.71830900  0.25388100  0.07543300  1
  C  1151  1  0.71295100  0.23878300  0.08550700  1
  C  1152  1  0.70087000  0.22397100  0.07768100  1
  C  1153  1  0.69577200  0.22405600  0.05961800  1
  C  1171  1  0.73197300  0.76522400  0.07963500  1
  C  1172  1  0.74631900  0.77231100  0.06543900  1
  C  1173  1  0.73513100  0.77084300  0.04867700  1
  C  1174  1  0.71020600  0.76219000  0.04572400  1
  C  1175  1  0.69575600  0.75495100  0.05997300  1
  C  1176  1  0.70684300  0.75678900  0.07686400  1
  C  1178  1  0.70316900  0.75952900  0.02807400  1
  C  1179  1  0.71277600  0.74441900  0.01978200  1
  C  1180  1  0.71782400  0.74413400  0.00171900  1
  C  1181  1  0.71258500  0.75934700  0.99180400  1
  C  1182  1  0.70077300  0.77417000  0.99978500  1
  C  1183  1  0.69582900  0.77396800  0.01786900  1
  C  1201  1  0.65053300  0.45768500  0.77094800  1
  C  1202  1  0.63708900  0.47158100  0.76265000  1
  C  1203  1  0.64819400  0.48838600  0.76390900  1
  C  1204  1  0.67210700  0.49170900  0.77354900  1
  C  1205  1  0.68565800  0.47773800  0.78196400  1
  C  1206  1  0.67473000  0.46078700  0.78032100  1
  C  1208  1  0.67842400  0.50947200  0.77631100  1
  C  1209  1  0.66886800  0.51747100  0.79159200  1
  C  1210  1  0.66377900  0.53551900  0.79226800  1
  C  1211  1  0.66881100  0.54574000  0.77723000  1
  C  1212  1  0.68041600  0.53806300  0.76218400  1
  C  1213  1  0.68539200  0.51998300  0.76201200  1
  C  1231  1  0.65053300  0.54057200  0.30666400  1
  C  1232  1  0.63721300  0.52667400  0.31504100  1
  C  1233  1  0.64835200  0.50987900  0.31376200  1
  C  1234  1  0.67219400  0.50657900  0.30404700  1
  C  1235  1  0.68563800  0.52055000  0.29556400  1
  C  1236  1  0.67466900  0.53748900  0.29722200  1
  C  1238  1  0.67853800  0.48882000  0.30128300  1
  C  1239  1  0.66889800  0.48085600  0.28599300  1
  C  1240  1  0.66374500  0.46281800  0.28528400  1
  C  1241  1  0.66881500  0.45255300  0.30028500  1
  C  1242  1  0.68052600  0.46018100  0.31532400  1
  C  1243  1  0.68558100  0.47825100  0.31552400  1
  C  1261  1  0.65133900  0.26779000  0.49735000  1
  C  1262  1  0.63927900  0.27713500  0.51109600  1
  C  1263  1  0.65066300  0.27587600  0.52782900  1
  C  1264  1  0.67343200  0.26518900  0.53125700  1
  C  1265  1  0.68559300  0.25574500  0.51741600  1
  C  1266  1  0.67447600  0.25740600  0.50051800  1
  C  1268  1  0.67917000  0.26215600  0.54907400  1
  C  1269  1  0.66873600  0.24693200  0.55676000  1
  C  1270  1  0.66307400  0.24610400  0.57472900  1
  C  1271  1  0.66853000  0.26088100  0.58524400  1
  C  1272  1  0.68106800  0.27579000  0.57791500  1
  C  1273  1  0.68659900  0.27612100  0.55990400  1
  C  1291  1  0.65114800  0.73060700  0.57997500  1
  C  1292  1  0.63866500  0.72162100  0.56614200  1
  C  1293  1  0.64998000  0.72293300  0.54939500  1
  C  1294  1  0.67308200  0.73334300  0.54604100  1
  C  1295  1  0.68568700  0.74242100  0.55996600  1
  C  1296  1  0.67462400  0.74069800  0.57687200  1
  C  1298  1  0.67907300  0.73634800  0.52825700  1
  C  1299  1  0.66900000  0.75161500  0.52048200  1
  C  1300  1  0.66354800  0.75240000  0.50248400  1
  C  1301  1  0.66882900  0.73752800  0.49207500  1
  C  1302  1  0.68106400  0.72256300  0.49950800  1
  C  1303  1  0.68644300  0.72228000  0.51754300  1
  C  1321  1  0.23012900  0.54062600  0.77094800  1
  C  1322  1  0.24357700  0.52672900  0.76265200  1
  C  1323  1  0.23247400  0.50992300  0.76391100  1
  C  1324  1  0.20856100  0.50660000  0.77354900  1
  C  1325  1  0.19500100  0.52057100  0.78196000  1
  C  1326  1  0.20592900  0.53752300  0.78031700  1
  C  1328  1  0.20224100  0.48883700  0.77631000  1
  C  1329  1  0.21179800  0.48083800  0.79159200  1
  C  1330  1  0.21688600  0.46279000  0.79226800  1
  C  1331  1  0.21185700  0.45256900  0.77723000  1
  C  1332  1  0.20025400  0.46024600  0.76218200  1
  C  1333  1  0.19527700  0.47832600  0.76201100  1
  C  1351  1  0.23015700  0.45776300  0.30666500  1
  C  1352  1  0.24345500  0.47165500  0.31506500  1
  C  1353  1  0.23232800  0.48845200  0.31377800  1
  C  1354  1  0.20852200  0.49176100  0.30402800  1
  C  1355  1  0.19509800  0.47779500  0.29552200  1
  C  1356  1  0.20605100  0.46085300  0.29719100  1
  C  1358  1  0.20220800  0.50952300  0.30125400  1
  C  1359  1  0.21191800  0.51748000  0.28597800  1
  C  1360  1  0.21708500  0.53551800  0.28527400  1
  C  1361  1  0.21196100  0.54578500  0.30026600  1
  C  1362  1  0.20018100  0.53816600  0.31528300  1
  C  1363  1  0.19511400  0.52009600  0.31547900  1
  C  1381  1  0.22938900  0.73057400  0.49733300  1
  C  1382  1  0.24145200  0.72122300  0.51107700  1
  C  1383  1  0.23007400  0.72248000  0.52781100  1
  C  1384  1  0.20730500  0.73316600  0.53124400  1
  C  1385  1  0.19514300  0.74261600  0.51740600  1
  C  1386  1  0.20625900  0.74095800  0.50050800  1
  C  1388  1  0.20156000  0.73618800  0.54906200  1
  C  1389  1  0.21197900  0.75140800  0.55676000  1
  C  1390  1  0.21760800  0.75223100  0.57473400  1
  C  1391  1  0.21213700  0.73745000  0.58524000  1
  C  1392  1  0.19961700  0.72254100  0.57789500  1
  C  1393  1  0.19412000  0.72221700  0.55988000  1
  C  1411  1  0.22952100  0.26770400  0.57997000  1
  C  1412  1  0.24200400  0.27669400  0.56613800  1
  C  1413  1  0.23069200  0.27538100  0.54939200  1
  C  1414  1  0.20759000  0.26497200  0.54603600  1
  C  1415  1  0.19498700  0.25589000  0.55995900  1
  C  1416  1  0.20604700  0.25761400  0.57686600  1
  C  1418  1  0.20160300  0.26196800  0.52825200  1
  C  1419  1  0.21167200  0.24670000  0.52047600  1
  C  1420  1  0.21712800  0.24591700  0.50247800  1
  C  1421  1  0.21184100  0.26078800  0.49206900  1
  C  1422  1  0.19960800  0.27575200  0.49950300  1
  C  1423  1  0.19423400  0.27603700  0.51753600  1
  C  1441  1  0.14840500  0.11840900  0.36643400  1
  C  1442  1  0.17633300  0.12146100  0.36357100  1
  C  1443  1  0.19255600  0.12748500  0.37742700  1
  C  1444  1  0.18133600  0.13103700  0.39397700  1
  C  1445  1  0.15360700  0.12681000  0.39717300  1
  C  1446  1  0.13755900  0.12049300  0.38329100  1
  C  1448  1  0.19608300  0.14287800  0.40463400  1
  C  1449  1  0.18590900  0.15990800  0.40657400  1
  C  1450  1  0.20258600  0.17375000  0.41213300  1
  C  1451  1  0.23030600  0.17032200  0.41601300  1
  C  1452  1  0.24064100  0.15313300  0.41497000  1
  C  1453  1  0.22325700  0.13957900  0.40944400  1
  C  1471  1  0.14842400  0.87981900  0.71102800  1
  C  1472  1  0.17634100  0.87672500  0.71390100  1
  C  1473  1  0.19253600  0.87067200  0.70004600  1
  C  1474  1  0.18132900  0.86723100  0.68347500  1
  C  1475  1  0.15362100  0.87149000  0.68026500  1
  C  1476  1  0.13758500  0.87779900  0.69415800  1
  C  1478  1  0.19607700  0.85543000  0.67277100  1
  C  1479  1  0.18589200  0.83839500  0.67083900  1
  C  1480  1  0.20256100  0.82453700  0.66531000  1
  C  1481  1  0.23029800  0.82794000  0.66146300  1
  C  1482  1  0.24065500  0.84512300  0.66250500  1
  C  1483  1  0.22326900  0.85869600  0.66798500  1
  C  1501  1  0.14832300  0.67135800  0.15819400  1
  C  1502  1  0.17624500  0.67420600  0.16131700  1
  C  1503  1  0.19245500  0.66030100  0.16724400  1
  C  1504  1  0.18125200  0.64370500  0.17059700  1
  C  1505  1  0.15351500  0.64055700  0.16638000  1
  C  1506  1  0.13747700  0.65448700  0.16015800  1
  C  1508  1  0.19602300  0.63300000  0.18238300  1
  C  1509  1  0.18585000  0.63102900  0.19941500  1
  C  1510  1  0.20254700  0.62548600  0.21325700  1
  C  1511  1  0.23026900  0.62159700  0.20983000  1
  C  1512  1  0.24059400  0.62268600  0.19264300  1
  C  1513  1  0.22320000  0.62820000  0.17909000  1
  C  1531  1  0.14836200  0.32688200  0.91919400  1
  C  1532  1  0.17629800  0.32406500  0.91610100  1
  C  1533  1  0.19248400  0.33797800  0.91016800  1
  C  1534  1  0.18122000  0.35453500  0.90671700  1
  C  1535  1  0.15347500  0.35766900  0.91094800  1
  C  1536  1  0.13747300  0.34373800  0.91721200  1
  C  1538  1  0.19595700  0.36528700  0.89495600  1
  C  1539  1  0.18579500  0.36734400  0.87793500  1
  C  1540  1  0.20251700  0.37295500  0.86413500  1
  C  1541  1  0.23023300  0.37681100  0.86760600  1
  C  1542  1  0.24052300  0.37568500  0.88480100  1
  C  1543  1  0.22309800  0.37012400  0.89832200  1
  C  1561  1  0.73224300  0.87989300  0.36643100  1
  C  1562  1  0.70431500  0.87684200  0.36356600  1
  C  1563  1  0.68808900  0.87081600  0.37742000  1
  C  1564  1  0.69930600  0.86726300  0.39397000  1
  C  1565  1  0.72703300  0.87149000  0.39716900  1
  C  1566  1  0.74308400  0.87780700  0.38328800  1
  C  1568  1  0.68455500  0.85542300  0.40462600  1
  C  1569  1  0.69472700  0.83839200  0.40656700  1
  C  1570  1  0.67804800  0.82455100  0.41212700  1
  C  1571  1  0.65032900  0.82797900  0.41600400  1
  C  1572  1  0.63999200  0.84516900  0.41495800  1
  C  1573  1  0.65738100  0.85872200  0.40943200  1
  C  1591  1  0.73225700  0.11855600  0.71107200  1
  C  1592  1  0.70433300  0.12163800  0.71393500  1
  C  1593  1  0.68814000  0.12767100  0.70007100  1
  C  1594  1  0.69935200  0.13110300  0.68349900  1
  C  1595  1  0.72706500  0.12685000  0.68030000  1
  C  1596  1  0.74310200  0.12056200  0.69420200  1
  C  1598  1  0.68460200  0.14289200  0.67278400  1
  C  1599  1  0.69477800  0.15992700  0.67084000  1
  C  1600  1  0.67810300  0.17377900  0.66530300  1
  C  1601  1  0.65036800  0.17036800  0.66145800  1
  C  1602  1  0.64001900  0.15318200  0.66251000  1
  C  1603  1  0.65741100  0.13961700  0.66799800  1
  C  1621  1  0.73234100  0.32694800  0.15819900  1
  C  1622  1  0.70441800  0.32410400  0.16132600  1
  C  1623  1  0.68821500  0.33801400  0.16725000  1
  C  1624  1  0.69942200  0.35461100  0.17059500  1
  C  1625  1  0.72716100  0.35775200  0.16637500  1
  C  1626  1  0.74319200  0.34381800  0.16015500  1
  C  1628  1  0.68465500  0.36532500  0.18237400  1
  C  1629  1  0.69482500  0.36730100  0.19940600  1
  C  1630  1  0.67813000  0.37285900  0.21324100  1
  C  1631  1  0.65041100  0.37675900  0.20980900  1
  C  1632  1  0.64009200  0.37566200  0.19262200  1
  C  1633  1  0.65748400  0.37012900  0.17907500  1
  C  1651  1  0.73227000  0.67141800  0.91921100  1
  C  1652  1  0.70433500  0.67423500  0.91611600  1
  C  1653  1  0.68815000  0.66032200  0.91018100  1
  C  1654  1  0.69941500  0.64376500  0.90672700  1
  C  1655  1  0.72715900  0.64063200  0.91096100  1
  C  1656  1  0.74315900  0.65456200  0.91722700  1
  C  1658  1  0.68468300  0.63301500  0.89496400  1
  C  1659  1  0.69484900  0.63096300  0.87794400  1
  C  1660  1  0.67813000  0.62535500  0.86414200  1
  C  1661  1  0.65041500  0.62149600  0.86760900  1
  C  1662  1  0.64011800  0.62261700  0.88480200  1
  C  1663  1  0.65754100  0.62817600  0.89832600  1
  C  1681  1  0.73467500  0.87850000  0.71025700  1
  C  1682  1  0.70671500  0.87601900  0.71352200  1
  C  1683  1  0.68968200  0.87043700  0.69987900  1
  C  1684  1  0.70008600  0.86678600  0.68313500  1
  C  1685  1  0.72787600  0.87049700  0.67953800  1
  C  1686  1  0.74476000  0.87635800  0.69321600  1
  C  1688  1  0.68439300  0.85528300  0.67265100  1
  C  1689  1  0.69375800  0.83809800  0.67043100  1
  C  1690  1  0.67625200  0.82456900  0.66514800  1
  C  1691  1  0.64850900  0.82847800  0.66183900  1
  C  1692  1  0.63895000  0.84583100  0.66314400  1
  C  1693  1  0.65715300  0.85906200  0.66837500  1
  C  1711  1  0.73458400  0.11989700  0.36724000  1
  C  1712  1  0.70663500  0.12240300  0.36394400  1
  C  1713  1  0.68958600  0.12797900  0.37757900  1
  C  1714  1  0.69993600  0.13149500  0.39436100  1
  C  1715  1  0.72770600  0.12776300  0.39799200  1
  C  1716  1  0.74462000  0.12194900  0.38430900  1
  C  1718  1  0.68419300  0.14292300  0.40489900  1
  C  1719  1  0.69354700  0.16011000  0.40717500  1
  C  1720  1  0.67602300  0.17363500  0.41244400  1
  C  1721  1  0.64825500  0.16973200  0.41567200  1
  C  1722  1  0.63869200  0.15238400  0.41430500  1
  C  1723  1  0.65692100  0.13915600  0.40910600  1
  C  1741  1  0.73502300  0.32777100  0.91829800  1
  C  1742  1  0.70708800  0.32443500  0.91574900  1
  C  1743  1  0.68999300  0.33805200  0.91018200  1
  C  1744  1  0.70028500  0.35484900  0.90664400  1
  C  1745  1  0.72806300  0.35848700  0.91033400  1
  C  1746  1  0.74501200  0.34483700  0.91618200  1
  C  1748  1  0.68449600  0.36528500  0.89515100  1
  C  1749  1  0.69385800  0.36750200  0.87795800  1
  C  1750  1  0.67630500  0.37266500  0.86440500  1
  C  1751  1  0.64852500  0.37590300  0.86828900  1
  C  1752  1  0.63897400  0.37458600  0.88564100  1
  C  1753  1  0.65721400  0.36947500  0.89889700  1
  C  1771  1  0.73465100  0.67074000  0.15912600  1
  C  1772  1  0.70671700  0.67404400  0.16170800  1
  C  1773  1  0.68967000  0.66041300  0.16730000  1
  C  1774  1  0.70003900  0.64364800  0.17089900  1
  C  1775  1  0.72780500  0.64002600  0.16713400  1
  C  1776  1  0.74469100  0.65368300  0.16122300  1
  C  1778  1  0.68435200  0.63315900  0.18239800  1
  C  1779  1  0.69378100  0.63086500  0.19956100  1
  C  1780  1  0.67626400  0.62564200  0.21310900  1
  C  1781  1  0.64848200  0.62242300  0.20923500  1
  C  1782  1  0.63888700  0.62376000  0.19189300  1
  C  1783  1  0.65709200  0.62891600  0.17863300  1
  C  1801  1  0.14598500  0.11981900  0.71025600  1
  C  1802  1  0.17394800  0.12229600  0.71351700  1
  C  1803  1  0.19097800  0.12787600  0.69987200  1
  C  1804  1  0.18057100  0.13152700  0.68312800  1
  C  1805  1  0.15277800  0.12781900  0.67953500  1
  C  1806  1  0.13589700  0.12196100  0.69321600  1
  C  1808  1  0.19626400  0.14302700  0.67264500  1
  C  1809  1  0.18690100  0.16021400  0.67042400  1
  C  1810  1  0.20440700  0.17374300  0.66514000  1
  C  1811  1  0.23215100  0.16983200  0.66183000  1
  C  1812  1  0.24170600  0.15247700  0.66313400  1
  C  1813  1  0.22350300  0.13924700  0.66836600  1
  C  1831  1  0.14608200  0.87843100  0.36723700  1
  C  1832  1  0.17403000  0.87592700  0.36393400  1
  C  1833  1  0.19108800  0.87035400  0.37756500  1
  C  1834  1  0.18075100  0.86684000  0.39435100  1
  C  1835  1  0.15298300  0.87057000  0.39798700  1
  C  1836  1  0.13605700  0.87638000  0.38430700  1
  C  1838  1  0.19650200  0.85541300  0.40488500  1
  C  1839  1  0.18714800  0.83822800  0.40716700  1
  C  1840  1  0.20467600  0.82470300  0.41243100  1
  C  1841  1  0.23244800  0.82860500  0.41564700  1
  C  1842  1  0.24201000  0.84595100  0.41427400  1
  C  1843  1  0.22377700  0.85918000  0.40908000  1
  C  1861  1  0.14567900  0.67056800  0.91832900  1
  C  1862  1  0.17361000  0.67390400  0.91576800  1
  C  1863  1  0.19070000  0.66028800  0.91019300  1
  C  1864  1  0.18040500  0.64349100  0.90665700  1
  C  1865  1  0.15263100  0.63985300  0.91035500  1
  C  1866  1  0.13568700  0.65350200  0.91621300  1
  C  1868  1  0.19618500  0.63305700  0.89515800  1
  C  1869  1  0.18681500  0.63084200  0.87796800  1
  C  1870  1  0.20435900  0.62568100  0.86441000  1
  C  1871  1  0.23213900  0.62243200  0.86828800  1
  C  1872  1  0.24169700  0.62374700  0.88563800  1
  C  1873  1  0.22346800  0.62886100  0.89889800  1
  C  1891  1  0.14601000  0.32757100  0.15913600  1
  C  1892  1  0.17394400  0.32426900  0.16171800  1
  C  1893  1  0.19098900  0.33790200  0.16730900  1
  C  1894  1  0.18061700  0.35466500  0.17090800  1
  C  1895  1  0.15285100  0.35828400  0.16714400  1
  C  1896  1  0.13596700  0.34462700  0.16123300  1
  C  1898  1  0.19630600  0.36515600  0.18240500  1
  C  1899  1  0.18688100  0.36745000  0.19956800  1
  C  1900  1  0.20439700  0.37268000  0.21311500  1
  C  1901  1  0.23217900  0.37589900  0.20923700  1
  C  1902  1  0.24177100  0.37456100  0.19189400  1
  C  1903  1  0.22356300  0.36940200  0.17863700  1
  C  1921  1  0.07441100  0.11711400  0.21776800  1
  C  1922  1  0.04889700  0.11584600  0.20935100  1
  C  1923  1  0.04328600  0.12704500  0.19520200  1
  C  1924  1  0.06255700  0.13936000  0.18945500  1
  C  1925  1  0.08824400  0.14060700  0.19788900  1
  C  1926  1  0.09368400  0.12925500  0.21183300  1
  C  1928  1  0.05535000  0.15130400  0.17626400  1
  C  1929  1  0.04415400  0.16741700  0.18117800  1
  C  1930  1  0.04658800  0.18222300  0.17043800  1
  C  1931  1  0.06007200  0.18049400  0.15418600  1
  C  1932  1  0.06997500  0.16412400  0.14865600  1
  C  1933  1  0.06712100  0.14957200  0.15967900  1
  C  1951  1  0.07454200  0.88135600  0.85979300  1
  C  1952  1  0.04888900  0.88241900  0.86806600  1
  C  1953  1  0.04333500  0.87121100  0.88221500  1
  C  1954  1  0.06280400  0.85909800  0.88811400  1
  C  1955  1  0.08863800  0.85806600  0.87983700  1
  C  1956  1  0.09401600  0.86942600  0.86588900  1
  C  1958  1  0.05562800  0.84707300  0.90123600  1
  C  1959  1  0.04462000  0.83094500  0.89617000  1
  C  1960  1  0.04706100  0.81607800  0.90682400  1
  C  1961  1  0.06031800  0.81775000  0.92315400  1
  C  1962  1  0.06999700  0.83412000  0.92884000  1
  C  1963  1  0.06712400  0.84873800  0.91790600  1
  C  1981  1  0.07387800  0.82043700  0.15556400  1
  C  1982  1  0.04772600  0.82811800  0.15546400  1
  C  1983  1  0.04250600  0.84226500  0.16673900  1
  C  1984  1  0.06279400  0.84876300  0.17797200  1
  C  1985  1  0.08915400  0.84112000  0.17797800  1
  C  1986  1  0.09419700  0.82719900  0.16651900  1
  C  1988  1  0.05586600  0.86157100  0.19040000  1
  C  1989  1  0.04576700  0.85605300  0.20662200  1
  C  1990  1  0.04844900  0.86649800  0.22161900  1
  C  1991  1  0.06097600  0.88307000  0.22000300  1
  C  1992  1  0.06962700  0.88920100  0.20356400  1
  C  1993  1  0.06653500  0.87847300  0.18881000  1
  C  2011  1  0.07425700  0.17779700  0.92179400  1
  C  2012  1  0.04817600  0.17002400  0.92214300  1
  C  2013  1  0.04278000  0.15590200  0.91087000  1
  C  2014  1  0.06281600  0.14952700  0.89938700  1
  C  2015  1  0.08910000  0.15727400  0.89911600  1
  C  2016  1  0.09433500  0.17115900  0.91058400  1
  C  2018  1  0.05572300  0.13667900  0.88703900  1
  C  2019  1  0.04527500  0.14208700  0.87087600  1
  C  2020  1  0.04785500  0.13159700  0.85590400  1
  C  2021  1  0.06060300  0.11509700  0.85751000  1
  C  2022  1  0.06963800  0.10907700  0.87391000  1
  C  2023  1  0.06659800  0.11983100  0.88865400  1
  C  2041  1  0.80625200  0.88119300  0.21776900  1
  C  2042  1  0.83176700  0.88246000  0.20935200  1
  C  2043  1  0.83737700  0.87126300  0.19520300  1
  C  2044  1  0.81810500  0.85894800  0.18945600  1
  C  2045  1  0.79242000  0.85770000  0.19788900  1
  C  2046  1  0.78697800  0.86905200  0.21183300  1
  C  2048  1  0.82531300  0.84700400  0.17626400  1
  C  2049  1  0.83650900  0.83089100  0.18117800  1
  C  2050  1  0.83407500  0.81608500  0.17043600  1
  C  2051  1  0.82059200  0.81781500  0.15418400  1
  C  2052  1  0.81068800  0.83418400  0.14865600  1
  C  2053  1  0.81354300  0.84873700  0.15967900  1
  C  2071  1  0.80605100  0.11652800  0.86007600  1
  C  2072  1  0.83202300  0.11595000  0.86798300  1
  C  2073  1  0.83749700  0.12719000  0.88211800  1
  C  2074  1  0.81764400  0.13886900  0.88836300  1
  C  2075  1  0.79148300  0.13940100  0.88046300  1
  C  2076  1  0.78618800  0.12799500  0.86653900  1
  C  2078  1  0.82478800  0.15109500  0.90131000  1
  C  2079  1  0.83531400  0.16727300  0.89599200  1
  C  2080  1  0.83289000  0.18219700  0.90656500  1
  C  2081  1  0.82014300  0.18054200  0.92306100  1
  C  2082  1  0.81095600  0.16413900  0.92898300  1
  C  2083  1  0.81382000  0.14946200  0.91812700  1
  C  2101  1  0.80677600  0.17786500  0.15554500  1
  C  2102  1  0.83293300  0.17019100  0.15545500  1
  C  2103  1  0.83815100  0.15604600  0.16673300  1
  C  2104  1  0.81785700  0.14954200  0.17795800  1
  C  2105  1  0.79149100  0.15717900  0.17795400  1
  C  2106  1  0.78645000  0.17109800  0.16649200  1
  C  2108  1  0.82478200  0.13673900  0.19039100  1
  C  2109  1  0.83487100  0.14226400  0.20661300  1
  C  2110  1  0.83218300  0.13182300  0.22161300  1
  C  2111  1  0.81967400  0.11524500  0.21999800  1
  C  2112  1  0.81103400  0.10910700  0.20355900  1
  C  2113  1  0.81412400  0.11983400  0.18880300  1
  C  2131  1  0.80640100  0.82051200  0.92177800  1
  C  2132  1  0.83248000  0.82828700  0.92213100  1
  C  2133  1  0.83787700  0.84241100  0.91086300  1
  C  2134  1  0.81784100  0.84878800  0.89938000  1
  C  2135  1  0.79155800  0.84103900  0.89910500  1
  C  2136  1  0.78632200  0.82715200  0.91056900  1
  C  2138  1  0.82493500  0.86163900  0.88703300  1
  C  2139  1  0.83538800  0.85623400  0.87087100  1
  C  2140  1  0.83281700  0.86672900  0.85590000  1
  C  2141  1  0.82005800  0.88322500  0.85751000  1
  C  2142  1  0.81101700  0.88924200  0.87391000  1
  C  2143  1  0.81405700  0.87848700  0.88865100  1
  C  2161  1  0.57363600  0.61800900  0.71890600  1
  C  2162  1  0.54854400  0.61628500  0.71006200  1
  C  2163  1  0.54282400  0.62759400  0.69601800  1
  C  2164  1  0.56158600  0.64044800  0.69079300  1
  C  2165  1  0.58685400  0.64215100  0.69965000  1
  C  2166  1  0.59238400  0.63072500  0.71351500  1
  C  2168  1  0.55453700  0.65215900  0.67736500  1
  C  2169  1  0.54334200  0.66838000  0.68191100  1
  C  2170  1  0.54610200  0.68300100  0.67094400  1
  C  2171  1  0.55990700  0.68096600  0.65483900  1
  C  2172  1  0.56984200  0.66448200  0.64968000  1
  C  2173  1  0.56669000  0.65013100  0.66092800  1
  C  2191  1  0.57372700  0.38045300  0.35868300  1
  C  2192  1  0.54846100  0.38196900  0.36735700  1
  C  2193  1  0.54278500  0.37066300  0.38141100  1
  C  2194  1  0.56177300  0.35802100  0.38681600  1
  C  2195  1  0.58722200  0.35653200  0.37813700  1
  C  2196  1  0.59270300  0.36795600  0.36426200  1
  C  2198  1  0.55473000  0.34624200  0.40018600  1
  C  2199  1  0.54372400  0.33000000  0.39549400  1
  C  2200  1  0.54648000  0.31532800  0.40639000  1
  C  2201  1  0.56004200  0.31732100  0.42258300  1
  C  2202  1  0.56974100  0.33381400  0.42789200  1
  C  2203  1  0.56658100  0.34822100  0.41671800  1
  C  2221  1  0.57347100  0.31957100  0.65630600  1
  C  2222  1  0.54754200  0.32753900  0.65583300  1
  C  2223  1  0.54214500  0.34154300  0.66725500  1
  C  2224  1  0.56205700  0.34761300  0.67898700  1
  C  2225  1  0.58819400  0.33967600  0.67938300  1
  C  2226  1  0.59340400  0.32587700  0.66780900  1
  C  2228  1  0.55513600  0.36059600  0.69122600  1
  C  2229  1  0.54510200  0.35534100  0.70755200  1
  C  2230  1  0.54801800  0.36597500  0.72240100  1
  C  2231  1  0.56071600  0.38246800  0.72052400  1
  C  2232  1  0.56932600  0.38833100  0.70397800  1
  C  2233  1  0.56602400  0.37741300  0.68938500  1
  C  2251  1  0.57375000  0.67875200  0.42094100  1
  C  2252  1  0.54791600  0.67067600  0.42165900  1
  C  2253  1  0.54237100  0.65668100  0.41025500  1
  C  2254  1  0.56203700  0.65073400  0.39829400  1
  C  2255  1  0.58807200  0.65879100  0.39763700  1
  C  2256  1  0.59344200  0.67257100  0.40920200  1
  C  2258  1  0.55498800  0.63769300  0.38614400  1
  C  2259  1  0.54460600  0.64281200  0.36987000  1
  C  2260  1  0.54744300  0.63211600  0.35506000  1
  C  2261  1  0.56038300  0.61570600  0.35694600  1
  C  2262  1  0.56938700  0.60998400  0.37346000  1
  C  2263  1  0.56611300  0.62094100  0.38803000  1
  C  2281  1  0.30702800  0.38029700  0.71890900  1
  C  2282  1  0.33211900  0.38202100  0.71006600  1
  C  2283  1  0.33784000  0.37071200  0.69602100  1
  C  2284  1  0.31907800  0.35785800  0.69079600  1
  C  2285  1  0.29381100  0.35615400  0.69965300  1
  C  2286  1  0.28828200  0.36758000  0.71351900  1
  C  2288  1  0.32612700  0.34614700  0.67736600  1
  C  2289  1  0.33732300  0.32992500  0.68191300  1
  C  2290  1  0.33456200  0.31530600  0.67094600  1
  C  2291  1  0.32075600  0.31734200  0.65484000  1
  C  2292  1  0.31082100  0.33382500  0.64968100  1
  C  2293  1  0.31397300  0.34817600  0.66093100  1
  C  2311  1  0.30677000  0.61743300  0.35899300  1
  C  2312  1  0.33240600  0.61638600  0.36728700  1
  C  2313  1  0.33802000  0.62772500  0.38132400  1
  C  2314  1  0.31861600  0.63994600  0.38708600  1
  C  2315  1  0.29279300  0.64095400  0.37879600  1
  C  2316  1  0.28737200  0.62948300  0.36494700  1
  C  2318  1  0.32568200  0.65191700  0.40028200  1
  C  2319  1  0.33622000  0.66820900  0.39533200  1
  C  2320  1  0.33350300  0.68294100  0.40614900  1
  C  2321  1  0.32045700  0.68096800  0.42251400  1
  C  2322  1  0.31123800  0.66444500  0.42806600  1
  C  2323  1  0.31436500  0.64997200  0.41697000  1
  C  2341  1  0.30718000  0.67872800  0.65628900  1
  C  2342  1  0.33311500  0.67076800  0.65582400  1
  C  2343  1  0.33851000  0.65676400  0.66724700  1
  C  2344  1  0.31859400  0.65069000  0.67897300  1
  C  2345  1  0.29245200  0.65861900  0.67936100  1
  C  2346  1  0.28724400  0.67241600  0.66778700  1
  C  2348  1  0.32551500  0.63770900  0.69121500  1
  C  2349  1  0.33554300  0.64296900  0.70754200  1
  C  2350  1  0.33262500  0.63233600  0.72239200  1
  C  2351  1  0.31993700  0.61584100  0.72051700  1
  C  2352  1  0.31133600  0.60997400  0.70397200  1
  C  2353  1  0.31463800  0.62088800  0.68937600  1
  C  2371  1  0.30690800  0.31955800  0.42092700  1
  C  2372  1  0.33274100  0.32763500  0.42164800  1
  C  2373  1  0.33828700  0.34163200  0.41024700  1
  C  2374  1  0.31862300  0.34758100  0.39828600  1
  C  2375  1  0.29258800  0.33952400  0.39762800  1
  C  2376  1  0.28721700  0.32574100  0.40918900  1
  C  2378  1  0.32567200  0.36062500  0.38614000  1
  C  2379  1  0.33605700  0.35550900  0.36986600  1
  C  2380  1  0.33322900  0.36620900  0.35505700  1
  C  2381  1  0.32027900  0.38261500  0.35694600  1
  C  2382  1  0.31127300  0.38833500  0.37346000  1
  C  2383  1  0.31454600  0.37737500  0.38802800  1
  C  2401  1  0.00910900  0.15778400  0.31496300  1
  C  2402  1  0.00163800  0.17372500  0.30713900  1
  C  2403  1  0.97369100  0.17791300  0.30567100  1
  C  2404  1  0.95335800  0.16651000  0.31179000  1
  C  2405  1  0.96086400  0.15050200  0.31971300  1
  C  2406  1  0.98876400  0.14658100  0.32127300  1
  C  2408  1  0.92566100  0.17038700  0.30862200  1
  C  2409  1  0.91357100  0.16389100  0.29335600  1
  C  2410  1  0.88533500  0.16066700  0.29246700  1
  C  2411  1  0.86899600  0.16440300  0.30721200  1
  C  2412  1  0.88062500  0.17210700  0.32221500  1
  C  2413  1  0.90892300  0.17528100  0.32264000  1
  C  2431  1  0.00920200  0.84039000  0.76243400  1
  C  2432  1  0.00170700  0.82454300  0.77043700  1
  C  2433  1  0.97375600  0.82035800  0.77189100  1
  C  2434  1  0.95344700  0.83166700  0.76556800  1
  C  2435  1  0.96097800  0.84757600  0.75745700  1
  C  2436  1  0.98888200  0.85149400  0.75591800  1
  C  2438  1  0.92574500  0.82783800  0.76875900  1
  C  2439  1  0.91374100  0.83447000  0.78400300  1
  C  2440  1  0.88553000  0.83777300  0.78491600  1
  C  2441  1  0.86910300  0.83395900  0.77023200  1
  C  2442  1  0.88062100  0.82609700  0.75527800  1
  C  2443  1  0.90889300  0.82283200  0.75483500  1
  C  2461  1  0.00943500  0.72256700  0.19799000  1
  C  2462  1  0.00178000  0.73067800  0.21375100  1
  C  2463  1  0.97378600  0.73216300  0.21780700  1
  C  2464  1  0.95359400  0.72573800  0.20646900  1
  C  2465  1  0.96129100  0.71745800  0.19068000  1
  C  2466  1  0.98923600  0.71588300  0.18689600  1
  C  2468  1  0.92586200  0.72904100  0.21011700  1
  C  2469  1  0.91405800  0.74424800  0.20326300  1
  C  2470  1  0.88589800  0.74519500  0.19979200  1
  C  2471  1  0.86928200  0.73061500  0.20371600  1
  C  2472  1  0.88061900  0.71573100  0.21181200  1
  C  2473  1  0.90885000  0.71523100  0.21520400  1
  C  2491  1  0.00887900  0.27510000  0.87993400  1
  C  2492  1  0.00141700  0.26759800  0.86383800  1
  C  2493  1  0.97346700  0.26618500  0.85963200  1
  C  2494  1  0.95313400  0.27207100  0.87115600  1
  C  2495  1  0.96063700  0.27969700  0.88731000  1
  C  2496  1  0.98853700  0.28121500  0.89124600  1
  C  2498  1  0.92543600  0.26898700  0.86721900  1
  C  2499  1  0.91331700  0.25362600  0.87346700  1
  C  2500  1  0.88510800  0.25277600  0.87680200  1
  C  2501  1  0.86882500  0.26761500  0.87334600  1
  C  2502  1  0.88048700  0.28270100  0.86582900  1
  C  2503  1  0.90875100  0.28310000  0.86252100  1
  C  2521  1  0.87154800  0.84052100  0.31496700  1
  C  2522  1  0.87902000  0.82458100  0.30714300  1
  C  2523  1  0.90696800  0.82039300  0.30567600  1
  C  2524  1  0.92730100  0.83179600  0.31179700  1
  C  2525  1  0.91979300  0.84780500  0.31971800  1
  C  2526  1  0.89189300  0.85172500  0.32127800  1
  C  2528  1  0.95499600  0.82791900  0.30862700  1
  C  2529  1  0.96708600  0.83441500  0.29336200  1
  C  2530  1  0.99532400  0.83764100  0.29247300  1
  C  2531  1  0.01166200  0.83390600  0.30721800  1
  C  2532  1  0.00003300  0.82620200  0.32222200  1
  C  2533  1  0.97173600  0.82302800  0.32264600  1
  C  2551  1  0.87147900  0.15801100  0.76245200  1
  C  2552  1  0.87899700  0.17385600  0.77045000  1
  C  2553  1  0.90695400  0.17802900  0.77189200  1
  C  2554  1  0.92724600  0.16671100  0.76556400  1
  C  2555  1  0.91969100  0.15080400  0.75745700  1
  C  2556  1  0.89178100  0.14689900  0.75592800  1
  C  2558  1  0.95495500  0.17052600  0.76875100  1
  C  2559  1  0.96695000  0.16389700  0.78400000  1
  C  2560  1  0.99515700  0.16058300  0.78491500  1
  C  2561  1  0.01158900  0.16438300  0.77023100  1
  C  2562  1  0.00008000  0.17224200  0.75527100  1
  C  2563  1  0.97181300  0.17551700  0.75482600  1
  C  2581  1  0.87122300  0.27573300  0.19798300  1
  C  2582  1  0.87887700  0.26762400  0.21374600  1
  C  2583  1  0.90687100  0.26614000  0.21780300  1
  C  2584  1  0.92706500  0.27256400  0.20646600  1
  C  2585  1  0.91936600  0.28084400  0.19067600  1
  C  2586  1  0.89142100  0.28241700  0.18689000  1
  C  2588  1  0.95479500  0.26926500  0.21011400  1
  C  2589  1  0.96660100  0.25405600  0.20326100  1
  C  2590  1  0.99476300  0.25311100  0.19979200  1
  C  2591  1  0.01137600  0.26769100  0.20371600  1
  C  2592  1  0.00003700  0.28257400  0.21181200  1
  C  2593  1  0.97180700  0.28307500  0.21520300  1
  C  2611  1  0.87175100  0.72312300  0.87992800  1
  C  2612  1  0.87922900  0.73061900  0.86383300  1
  C  2613  1  0.90718200  0.73202100  0.85963200  1
  C  2614  1  0.92750400  0.72612800  0.87116000  1
  C  2615  1  0.91998600  0.71850500  0.88731300  1
  C  2616  1  0.89208200  0.71699700  0.89124200  1
  C  2618  1  0.95520500  0.72922200  0.86723900  1
  C  2619  1  0.96729000  0.74459600  0.87348100  1
  C  2620  1  0.99549200  0.74547100  0.87683200  1
  C  2621  1  0.01180100  0.73063700  0.87340500  1
  C  2622  1  0.00017700  0.71553700  0.86589400  1
  C  2623  1  0.97192100  0.71511600  0.86256400  1
  C  2641  1  0.50945600  0.65607100  0.81606600  1
  C  2642  1  0.50169500  0.67252800  0.80952500  1
  C  2643  1  0.47366500  0.67653000  0.80816600  1
  C  2644  1  0.45354200  0.66445000  0.81316300  1
  C  2645  1  0.46132900  0.64793000  0.81981500  1
  C  2646  1  0.48930000  0.64417000  0.82124700  1
  C  2648  1  0.42577200  0.66841800  0.81042000  1
  C  2649  1  0.41337900  0.66277100  0.79491800  1
  C  2650  1  0.38510500  0.65966100  0.79405700  1
  C  2651  1  0.36903800  0.66265500  0.80909200  1
  C  2652  1  0.38099200  0.66945000  0.82442500  1
  C  2653  1  0.40932100  0.67250500  0.82482700  1
  C  2671  1  0.50963500  0.34205300  0.26133400  1
  C  2672  1  0.50181700  0.32569400  0.26808800  1
  C  2673  1  0.47377500  0.32171800  0.26942200  1
  C  2674  1  0.45369700  0.33372400  0.26418100  1
  C  2675  1  0.46154000  0.35014300  0.25730800  1
  C  2676  1  0.48952400  0.35387600  0.25590700  1
  C  2678  1  0.42591200  0.32982300  0.26694700  1
  C  2679  1  0.41361000  0.33563100  0.28243000  1
  C  2680  1  0.38536500  0.33883600  0.28331000  1
  C  2681  1  0.36921000  0.33575600  0.26833300  1
  C  2682  1  0.38104900  0.32877700  0.25304700  1
  C  2683  1  0.40934700  0.32561800  0.25262700  1
  C  2701  1  0.50969800  0.22151300  0.69614300  1
  C  2702  1  0.50177900  0.22816800  0.71252400  1
  C  2703  1  0.47371000  0.22954900  0.71640500  1
  C  2704  1  0.45370900  0.22442300  0.70429800  1
  C  2705  1  0.46165600  0.21758200  0.68788600  1
  C  2706  1  0.48966400  0.21613100  0.68424600  1
  C  2708  1  0.42591000  0.22726100  0.70810000  1
  C  2709  1  0.41374700  0.24275000  0.70220000  1
  C  2710  1  0.38554400  0.24366000  0.69884600  1
  C  2711  1  0.36925700  0.22873100  0.70192600  1
  C  2712  1  0.38097200  0.21346300  0.70902500  1
  C  2713  1  0.40923500  0.21299200  0.71229400  1
  C  2731  1  0.50928100  0.77619000  0.38169700  1
  C  2732  1  0.50152500  0.76999400  0.36510600  1
  C  2733  1  0.47349500  0.76868500  0.36108800  1
  C  2734  1  0.45337100  0.77341400  0.37327500  1
  C  2735  1  0.46115600  0.77974200  0.38992300  1
  C  2736  1  0.48912500  0.78113300  0.39369900  1
  C  2738  1  0.42560200  0.77075100  0.36925800  1
  C  2739  1  0.41319800  0.75515800  0.37464400  1
  C  2740  1  0.38495900  0.75431700  0.37788700  1
  C  2741  1  0.36893600  0.76943000  0.37521100  1
  C  2742  1  0.38089900  0.78484500  0.36861300  1
  C  2743  1  0.40918700  0.78524100  0.36540200  1
  C  2761  1  0.37120200  0.34223600  0.81607200  1
  C  2762  1  0.37896400  0.32577900  0.80953200  1
  C  2763  1  0.40699400  0.32177800  0.80817400  1
  C  2764  1  0.42711700  0.33385800  0.81317000  1
  C  2765  1  0.41932900  0.35037800  0.81982300  1
  C  2766  1  0.39135800  0.35413800  0.82125200  1
  C  2768  1  0.45488700  0.32989000  0.81042800  1
  C  2769  1  0.46728100  0.33553600  0.79492600  1
  C  2770  1  0.49555500  0.33864800  0.79406600  1
  C  2771  1  0.51162000  0.33565700  0.80910200  1
  C  2772  1  0.49966500  0.32886200  0.82443400  1
  C  2773  1  0.47133900  0.32580600  0.82483600  1
  C  2791  1  0.37104900  0.65633500  0.26132900  1
  C  2792  1  0.37888500  0.67269400  0.26807700  1
  C  2793  1  0.40692900  0.67666100  0.26940500  1
  C  2794  1  0.42699500  0.66464500  0.26416700  1
  C  2795  1  0.41913600  0.64822600  0.25730100  1
  C  2796  1  0.39114800  0.64450300  0.25590500  1
  C  2798  1  0.45478400  0.66853400  0.26693300  1
  C  2799  1  0.46707800  0.66273200  0.28241900  1
  C  2800  1  0.49532100  0.65952000  0.28330600  1
  C  2801  1  0.51148200  0.66258700  0.26833000  1
  C  2802  1  0.49965300  0.66956000  0.25303800  1
  C  2803  1  0.47135700  0.67272800  0.25261300  1
  C  2821  1  0.37095800  0.77678900  0.69613900  1
  C  2822  1  0.37887900  0.77013100  0.71251700  1
  C  2823  1  0.40694700  0.76875100  0.71640000  1
  C  2824  1  0.42694900  0.77388300  0.70429500  1
  C  2825  1  0.41899900  0.78072800  0.68788600  1
  C  2826  1  0.39099200  0.78217700  0.68424500  1
  C  2828  1  0.45474500  0.77104500  0.70809600  1
  C  2829  1  0.46690900  0.75555600  0.70219500  1
  C  2830  1  0.49511200  0.75464600  0.69884200  1
  C  2831  1  0.51140100  0.76957400  0.70192600  1
  C  2832  1  0.49968600  0.78484100  0.70902500  1
  C  2833  1  0.47142200  0.78531200  0.71229300  1
  C  2851  1  0.37135600  0.22204000  0.38168900  1
  C  2852  1  0.37912500  0.22822500  0.36509800  1
  C  2853  1  0.40715700  0.22952200  0.36108600  1
  C  2854  1  0.42727000  0.22479000  0.37327900  1
  C  2855  1  0.41947100  0.21847300  0.38992800  1
  C  2856  1  0.39149800  0.21709100  0.39369800  1
  C  2858  1  0.45504400  0.22745900  0.36927300  1
  C  2859  1  0.46741700  0.24306600  0.37464500  1
  C  2860  1  0.49565200  0.24392700  0.37790200  1
  C  2861  1  0.51169700  0.22881800  0.37526200  1
  C  2862  1  0.49976500  0.21338800  0.36867900  1
  C  2863  1  0.47148300  0.21297300  0.36544800  1
  N  8  1  0.07743000  0.14450700  0.34618700  1
  N  15  1  0.12255700  0.07698300  0.24036000  1
  N  38  1  0.07750000  0.85371900  0.73129300  1
  N  45  1  0.12252200  0.92136900  0.83705800  1
  N  68  1  0.07803500  0.69176400  0.18483200  1
  N  75  1  0.12061100  0.79708400  0.11587400  1
  N  98  1  0.07741300  0.30643700  0.89287500  1
  N  105  1  0.12152700  0.20107800  0.96139500  1
  N  128  1  0.80322200  0.85379700  0.34618900  1
  N  135  1  0.75810900  0.92132500  0.24036100  1
  N  158  1  0.80314700  0.14470800  0.73135300  1
  N  165  1  0.75840000  0.07681000  0.83701000  1
  N  188  1  0.80262100  0.30653300  0.18483100  1
  N  195  1  0.76004600  0.20122300  0.11585400  1
  N  218  1  0.80320200  0.69184500  0.89288700  1
  N  225  1  0.75913900  0.79723200  0.96137700  1
  N  248  1  0.80279000  0.84981400  0.73027900  1
  N  255  1  0.77350800  0.92385700  0.83407900  1
  N  278  1  0.80276900  0.14862400  0.34721700  1
  N  285  1  0.77319900  0.07455700  0.24346400  1
  N  308  1  0.80281400  0.30762500  0.88933800  1
  N  315  1  0.77383500  0.20392300  0.96352300  1
  N  338  1  0.80279600  0.69080400  0.18784800  1
  N  345  1  0.77392200  0.79454300  0.11367200  1
  N  368  1  0.07788400  0.14851700  0.73028400  1
  N  375  1  0.10716100  0.07446900  0.83407900  1
  N  398  1  0.07788800  0.84969200  0.34722400  1
  N  405  1  0.10745300  0.92375400  0.24346700  1
  N  428  1  0.07788100  0.69069700  0.88940400  1
  N  435  1  0.10679300  0.79441200  0.96358200  1
  N  458  1  0.07786400  0.30750400  0.18785400  1
  N  465  1  0.10674600  0.20376800  0.11367600  1
  N  488  1  0.57901900  0.64354300  0.84716500  1
  N  495  1  0.62213300  0.57715900  0.74024700  1
  N  518  1  0.57922000  0.35458200  0.23035400  1
  N  525  1  0.62201900  0.42120000  0.33717800  1
  N  548  1  0.57953900  0.19096700  0.68381200  1
  N  555  1  0.62047500  0.29729300  0.61593200  1
  N  578  1  0.57900500  0.80743700  0.39398500  1
  N  585  1  0.62120400  0.70091100  0.46123600  1
  N  608  1  0.30163500  0.35476300  0.84716900  1
  N  615  1  0.25853500  0.42114700  0.74025000  1
  N  638  1  0.30144200  0.64382000  0.23037700  1
  N  645  1  0.25888400  0.57699800  0.33711700  1
  N  668  1  0.30111400  0.80732900  0.68381100  1
  N  675  1  0.26017300  0.70101200  0.61591800  1
  N  698  1  0.30161600  0.19085400  0.39398600  1
  N  705  1  0.25946200  0.29739800  0.46122100  1
  N  728  1  0.30144800  0.35157700  0.22911300  1
  N  735  1  0.27284300  0.42316800  0.33472800  1
  N  758  1  0.30135600  0.64690000  0.84836100  1
  N  765  1  0.27259300  0.57525800  0.74279500  1
  N  788  1  0.30148800  0.80864900  0.39122500  1
  N  795  1  0.27308200  0.70310900  0.46290600  1
  N  818  1  0.30141300  0.18967700  0.68597900  1
  N  825  1  0.27311700  0.29531700  0.61439800  1
  N  848  1  0.57922600  0.64675500  0.22911700  1
  N  855  1  0.60782700  0.57515600  0.33472600  1
  N  878  1  0.57929700  0.35142100  0.84837200  1
  N  885  1  0.60806300  0.42305300  0.74279900  1
  N  908  1  0.57920800  0.18967200  0.39128100  1
  N  915  1  0.60757100  0.29523000  0.46294500  1
  N  938  1  0.57924800  0.80862600  0.68598800  1
  N  945  1  0.60755100  0.70299300  0.61439900  1
  N  977  1  0.15205000  0.04373900  0.30871600  1
  N  980  1  0.18309000  0.04705800  0.24836900  1
  N  981  1  0.10637000  0.96936500  0.26071300  1
  N  982  1  0.20997700  0.97978900  0.29002800  1
  N  989  1  0.15471300  0.06089200  0.27724300  1
  N  990  1  0.13649000  0.94256000  0.27255100  1
  N  1007  1  0.15190900  0.95469600  0.76884200  1
  N  1010  1  0.18331300  0.95113500  0.82909700  1
  N  1011  1  0.10651100  0.02887200  0.81712800  1
  N  1012  1  0.20986500  0.01855000  0.78741200  1
  N  1019  1  0.15473100  0.93742200  0.80024100  1
  N  1020  1  0.13639200  0.05569600  0.80508200  1
  N  1037  1  0.15077500  0.72995100  0.08234100  1
  N  1040  1  0.18406700  0.78965800  0.08752100  1
  N  1041  1  0.11015400  0.78192300  0.00890100  1
  N  1042  1  0.20791100  0.74544900  0.01963000  1
  N  1049  1  0.15386300  0.76096900  0.10020700  1
  N  1050  1  0.13643500  0.76602500  0.98250900  1
  N  1067  1  0.15148600  0.26867300  0.99465000  1
  N  1070  1  0.18407300  0.20873800  0.99013000  1
  N  1071  1  0.10888100  0.21784000  0.06821100  1
  N  1072  1  0.20877400  0.25202100  0.05790100  1
  N  1079  1  0.15451900  0.23749400  0.97701100  1
  N  1080  1  0.13643600  0.23232800  0.09486500  1
  N  1097  1  0.72861600  0.95457000  0.30871600  1
  N  1100  1  0.69757800  0.95125200  0.24836900  1
  N  1101  1  0.77429800  0.02894700  0.26072300  1
  N  1102  1  0.67067800  0.01851900  0.29001900  1
  N  1109  1  0.72595400  0.93741700  0.27724300  1
  N  1110  1  0.74416700  0.05575200  0.27255000  1
  N  1127  1  0.72900400  0.04363800  0.76886200  1
  N  1130  1  0.69728600  0.04721700  0.82905100  1
  N  1131  1  0.77413200  0.96945000  0.81721000  1
  N  1132  1  0.67090800  0.97980700  0.78732400  1
  N  1139  1  0.72603700  0.06092100  0.80024900  1
  N  1140  1  0.74429500  0.94263900  0.80508700  1
  N  1157  1  0.72991200  0.26837800  0.08234100  1
  N  1160  1  0.69660300  0.20866900  0.08749000  1
  N  1161  1  0.77053100  0.21639000  0.00885500  1
  N  1162  1  0.67284600  0.25293400  0.01962500  1
  N  1169  1  0.72677900  0.23736500  0.10020900  1
  N  1170  1  0.74426900  0.23232700  0.98247500  1
  N  1187  1  0.72917500  0.72963900  0.99463900  1
  N  1190  1  0.69660300  0.78957700  0.99012600  1
  N  1191  1  0.77179900  0.78046000  0.06820500  1
  N  1192  1  0.67189300  0.74629800  0.05789400  1
  N  1199  1  0.72614500  0.76081900  0.97700200  1
  N  1200  1  0.74423400  0.76597900  0.09485900  1
  N  1217  1  0.65267200  0.54230300  0.80698000  1
  N  1220  1  0.68436600  0.54802700  0.74694800  1
  N  1221  1  0.61245000  0.46850300  0.75361100  1
  N  1222  1  0.70852500  0.48014200  0.79158400  1
  N  1229  1  0.65537900  0.56062700  0.77617600  1
  N  1230  1  0.63813100  0.44248900  0.77054700  1
  N  1247  1  0.65251400  0.45609300  0.27058500  1
  N  1250  1  0.68451000  0.45017900  0.33053000  1
  N  1251  1  0.61264100  0.52973400  0.32416100  1
  N  1252  1  0.70843400  0.51816300  0.28587200  1
  N  1259  1  0.65535700  0.43767600  0.30132500  1
  N  1260  1  0.63806200  0.55574600  0.30705500  1
  N  1277  1  0.65105700  0.23152000  0.58115200  1
  N  1280  1  0.68543100  0.29078600  0.58816700  1
  N  1281  1  0.61557700  0.28713300  0.50798200  1
  N  1282  1  0.70728600  0.24509100  0.51990700  1
  N  1289  1  0.65458000  0.26196500  0.59992700  1
  N  1290  1  0.63829400  0.26793700  0.48236800  1
  N  1307  1  0.65184100  0.76703100  0.49593700  1
  N  1310  1  0.68530500  0.70748400  0.48935600  1
  N  1311  1  0.61466700  0.71189900  0.56920100  1
  N  1312  1  0.70773900  0.75278500  0.55754800  1
  N  1319  1  0.65514900  0.73647000  0.47728100  1
  N  1320  1  0.63826100  0.73036500  0.59500800  1
  N  1337  1  0.22799100  0.45600600  0.80698000  1
  N  1340  1  0.19630500  0.45028200  0.74694800  1
  N  1341  1  0.26822000  0.52980800  0.75361600  1
  N  1342  1  0.17213300  0.51816700  0.79157800  1
  N  1349  1  0.22528900  0.43768200  0.77617700  1
  N  1350  1  0.24252700  0.55582200  0.77054600  1
  N  1367  1  0.22838100  0.54223600  0.27059100  1
  N  1370  1  0.19612200  0.54817100  0.33047900  1
  N  1371  1  0.26799600  0.46858500  0.32421600  1
  N  1372  1  0.17233900  0.48019100  0.28579800  1
  N  1379  1  0.22541700  0.56066600  0.30131900  1
  N  1380  1  0.24262200  0.44258800  0.30705700  1
  N  1397  1  0.22960300  0.76681700  0.58117000  1
  N  1400  1  0.19523500  0.70754200  0.58813900  1
  N  1401  1  0.26514700  0.71122300  0.50795600  1
  N  1402  1  0.17345200  0.75327000  0.51990100  1
  N  1409  1  0.22604700  0.73637200  0.59994000  1
  N  1410  1  0.24242100  0.73042200  0.48234600  1
  N  1427  1  0.22882200  0.23128300  0.49592900  1
  N  1430  1  0.19536600  0.29083100  0.48934900  1
  N  1431  1  0.26600300  0.28641500  0.56919900  1
  N  1432  1  0.17293500  0.24552600  0.55754000  1
  N  1439  1  0.22551600  0.26184300  0.47727200  1
  N  1440  1  0.24240900  0.26794700  0.59500400  1
  N  1457  1  0.19174900  0.19002000  0.41278800  1
  N  1460  1  0.26856500  0.14993700  0.41800500  1
  N  1461  1  0.18701600  0.11970300  0.34657200  1
  N  1462  1  0.14173900  0.12934300  0.41292800  1
  N  1469  1  0.24671700  0.18394700  0.41646400  1
  N  1470  1  0.13262300  0.11770400  0.35251900  1
  N  1487  1  0.19170100  0.80827300  0.66467800  1
  N  1490  1  0.26859800  0.84830200  0.65952100  1
  N  1491  1  0.18701100  0.87843900  0.73090700  1
  N  1492  1  0.14176200  0.86902000  0.66449800  1
  N  1499  1  0.24668400  0.81430000  0.66103600  1
  N  1500  1  0.13263800  0.88053000  0.72494000  1
  N  1517  1  0.19171000  0.62484700  0.22952700  1
  N  1520  1  0.26853300  0.61970200  0.18945600  1
  N  1521  1  0.18694200  0.69121900  0.15971500  1
  N  1522  1  0.14164100  0.62478900  0.16880500  1
  N  1529  1  0.24665000  0.62121800  0.22347200  1
  N  1530  1  0.13260800  0.68531200  0.15762500  1
  N  1547  1  0.19172500  0.37366500  0.84785600  1
  N  1550  1  0.26844700  0.37868000  0.88804000  1
  N  1551  1  0.18704200  0.30706800  0.91774600  1
  N  1552  1  0.14155000  0.37341700  0.90848500  1
  N  1559  1  0.24667000  0.37731800  0.85399400  1
  N  1560  1  0.13267500  0.31291700  0.91973400  1
  N  1577  1  0.68888500  0.80828200  0.41278400  1
  N  1580  1  0.61206800  0.84836600  0.41799000  1
  N  1581  1  0.69363600  0.87860100  0.34656500  1
  N  1582  1  0.73889800  0.86895600  0.41292500  1
  N  1589  1  0.63391700  0.81435400  0.41645700  1
  N  1590  1  0.74802800  0.88059900  0.35251800  1
  N  1607  1  0.68895600  0.19004400  0.66466000  1
  N  1610  1  0.61207800  0.14999700  0.65952900  1
  N  1611  1  0.69365500  0.11993500  0.73094100  1
  N  1612  1  0.73893100  0.12930900  0.66453300  1
  N  1619  1  0.63397500  0.18400400  0.66102700  1
  N  1620  1  0.74803400  0.11786400  0.72498900  1
  N  1637  1  0.68896300  0.37350300  0.22951400  1
  N  1640  1  0.61215500  0.37865400  0.18943000  1
  N  1641  1  0.69371600  0.30709200  0.15973100  1
  N  1642  1  0.73904000  0.37352000  0.16879300  1
  N  1649  1  0.63402800  0.37715500  0.22344800  1
  N  1650  1  0.74805000  0.31299100  0.15762900  1
  N  1667  1  0.68892600  0.62464200  0.84786300  1
  N  1670  1  0.61219600  0.61962000  0.88803700  1
  N  1671  1  0.69359000  0.69123200  0.91776100  1
  N  1672  1  0.73908500  0.62488400  0.90849600  1
  N  1679  1  0.63398200  0.62098800  0.85399400  1
  N  1680  1  0.74795700  0.68538300  0.91974800  1
  N  1697  1  0.68637200  0.80812600  0.66421900  1
  N  1700  1  0.61103200  0.84950700  0.66068300  1
  N  1701  1  0.69674700  0.87786600  0.73068900  1
  N  1702  1  0.73900000  0.86788300  0.66357500  1
  N  1709  1  0.63151100  0.81514000  0.66172900  1
  N  1710  1  0.75096200  0.87881700  0.72395200  1
  N  1727  1  0.68615200  0.19007300  0.41341200  1
  N  1730  1  0.61075300  0.14871100  0.41666600  1
  N  1731  1  0.69672500  0.12062100  0.34675600  1
  N  1732  1  0.73877600  0.13028600  0.41398200  1
  N  1739  1  0.63127900  0.18308300  0.41578100  1
  N  1740  1  0.75090700  0.11959700  0.35356300  1
  N  1757  1  0.68643700  0.37355600  0.84796100  1
  N  1760  1  0.61101900  0.37691500  0.88928600  1
  N  1761  1  0.69720900  0.30723800  0.91752600  1
  N  1762  1  0.73909900  0.37447700  0.90774600  1
  N  1769  1  0.63158400  0.37587000  0.85492100  1
  N  1770  1  0.75132400  0.31408100  0.91856000  1
  N  1787  1  0.68642300  0.62468800  0.22954100  1
  N  1790  1  0.61093600  0.62140100  0.18825000  1
  N  1791  1  0.69678400  0.69122800  0.15993100  1
  N  1792  1  0.73890400  0.62405400  0.16972600  1
  N  1799  1  0.63152900  0.62235300  0.22259900  1
  N  1800  1  0.75093000  0.68443900  0.15888600  1
  N  1817  1  0.19429300  0.19018600  0.66421200  1
  N  1820  1  0.26962400  0.14880000  0.66067100  1
  N  1821  1  0.18391700  0.12044900  0.73068400  1
  N  1822  1  0.14165300  0.13043300  0.66357400  1
  N  1829  1  0.24915100  0.18316800  0.66172000  1
  N  1830  1  0.12970100  0.11950700  0.72395200  1
  N  1847  1  0.19454600  0.80826500  0.41340700  1
  N  1850  1  0.26995300  0.84962400  0.41662300  1
  N  1851  1  0.18393000  0.87770800  0.34674300  1
  N  1852  1  0.14192300  0.86804800  0.41398000  1
  N  1859  1  0.24941900  0.81525300  0.41575100  1
  N  1860  1  0.12975200  0.87872700  0.35356300  1
  N  1877  1  0.19421700  0.62478600  0.84796900  1
  N  1880  1  0.26965200  0.62141100  0.88927800  1
  N  1881  1  0.18349100  0.69110100  0.91754400  1
  N  1882  1  0.14159100  0.62386500  0.90776800  1
  N  1889  1  0.24907400  0.62246300  0.85491900  1
  N  1890  1  0.12937700  0.68425600  0.91860100  1
  N  1907  1  0.19424600  0.37362900  0.22954900  1
  N  1910  1  0.26971900  0.37692100  0.18824900  1
  N  1911  1  0.18388000  0.30708500  0.15994100  1
  N  1912  1  0.14174900  0.37425700  0.16973700  1
  N  1919  1  0.24913500  0.37597100  0.22259900  1
  N  1920  1  0.12973300  0.31387000  0.15889600  1
  N  1937  1  0.03769700  0.19776300  0.17663500  1
  N  1940  1  0.08453100  0.16292300  0.13283100  1
  N  1941  1  0.02951100  0.10368800  0.21528400  1
  N  1942  1  0.10767100  0.15245800  0.19353500  1
  N  1949  1  0.07117600  0.19429800  0.14684200  1
  N  1950  1  0.08215100  0.10867700  0.23185700  1
  N  1967  1  0.03843200  0.80054400  0.90046100  1
  N  1970  1  0.08435200  0.83527400  0.94474300  1
  N  1971  1  0.02930000  0.89436300  0.86197000  1
  N  1972  1  0.10825500  0.84639300  0.88432000  1
  N  1979  1  0.07138000  0.80393300  0.93049800  1
  N  1980  1  0.08223000  0.88975700  0.84567000  1
  N  1997  1  0.04069200  0.85977700  0.23719200  1
  N  2000  1  0.08327700  0.90535500  0.20246700  1
  N  2001  1  0.02731700  0.82142400  0.14443600  1
  N  2002  1  0.10959900  0.84611400  0.18883600  1
  N  2009  1  0.07220200  0.89026700  0.23383600  1
  N  2010  1  0.08142100  0.80629000  0.14713700  1
  N  2027  1  0.03978800  0.13821400  0.84035100  1
  N  2030  1  0.08352600  0.09300400  0.87499200  1
  N  2031  1  0.02801300  0.17659500  0.93342800  1
  N  2032  1  0.10929900  0.15238800  0.88802400  1
  N  2039  1  0.07185200  0.10789400  0.84368300  1
  N  2040  1  0.08192800  0.19191100  0.93022800  1
  N  2057  1  0.84296700  0.80054500  0.17663500  1
  N  2060  1  0.79613300  0.83538600  0.13283100  1
  N  2061  1  0.85115200  0.89462000  0.21528600  1
  N  2062  1  0.77299200  0.84585000  0.19353500  1
  N  2069  1  0.80948900  0.80401100  0.14684100  1
  N  2070  1  0.79851200  0.88963000  0.23185900  1
  N  2087  1  0.84104700  0.19775200  0.90000000  1
  N  2090  1  0.79709200  0.16299600  0.94506100  1
  N  2091  1  0.85201000  0.10447400  0.86152700  1
  N  2092  1  0.77148000  0.15068200  0.88524300  1
  N  2099  1  0.80908100  0.19434700  0.93042500  1
  N  2100  1  0.79838800  0.10816700  0.84592000  1
  N  2117  1  0.83994100  0.13854300  0.23718600  1
  N  2120  1  0.79739700  0.09295000  0.20246200  1
  N  2121  1  0.85334900  0.17689300  0.14443700  1
  N  2122  1  0.77103900  0.15218000  0.18880300  1
  N  2129  1  0.80844700  0.10804800  0.23383000  1
  N  2130  1  0.79923300  0.19201200  0.14711900  1
  N  2147  1  0.84087200  0.86011100  0.84034600  1
  N  2150  1  0.79712600  0.90531300  0.87499400  1
  N  2151  1  0.85264200  0.82171400  0.93341600  1
  N  2152  1  0.77136000  0.84592800  0.88801200  1
  N  2159  1  0.80881300  0.89043200  0.84368200  1
  N  2160  1  0.79872800  0.80639700  0.93021000  1
  N  2177  1  0.53721000  0.69866900  0.67680800  1
  N  2180  1  0.58473300  0.66296700  0.63400900  1
  N  2181  1  0.52975400  0.60349600  0.71542400  1
  N  2182  1  0.60585400  0.65441000  0.69567600  1
  N  2189  1  0.57125200  0.69460200  0.64733300  1
  N  2190  1  0.58154900  0.60927400  0.73276700  1
  N  2207  1  0.53785600  0.29965800  0.40037000  1
  N  2210  1  0.58441200  0.33529600  0.44364900  1
  N  2211  1  0.52943500  0.39453400  0.36180500  1
  N  2212  1  0.60642900  0.34445700  0.38226700  1
  N  2219  1  0.57137000  0.30368000  0.43008900  1
  N  2220  1  0.58159500  0.38914700  0.34478500  1
  N  2237  1  0.54032900  0.35950300  0.73809100  1
  N  2240  1  0.58316800  0.40439500  0.70260900  1
  N  2241  1  0.52757600  0.32131700  0.64421400  1
  N  2242  1  0.60829400  0.34436000  0.69063500  1
  N  2249  1  0.57215900  0.38980900  0.73421000  1
  N  2250  1  0.58119100  0.30565200  0.64758100  1
  N  2267  1  0.53943900  0.63846100  0.33938100  1
  N  2270  1  0.58349100  0.59401100  0.37483400  1
  N  2271  1  0.52819700  0.67676800  0.43351800  1
  N  2272  1  0.60793300  0.65421600  0.38617100  1
  N  2279  1  0.57184800  0.60834500  0.34327400  1
  N  2280  1  0.58158900  0.69264200  0.42967100  1
  N  2297  1  0.34345400  0.29963700  0.67680900  1
  N  2300  1  0.29593100  0.33534000  0.63401100  1
  N  2301  1  0.35091000  0.39481000  0.71542500  1
  N  2302  1  0.27481200  0.34389500  0.69568000  1
  N  2309  1  0.30941100  0.30370600  0.64733300  1
  N  2310  1  0.29911500  0.38903200  0.73277000  1
  N  2327  1  0.34166800  0.69863100  0.39992100  1
  N  2330  1  0.29705800  0.66297500  0.44400500  1
  N  2331  1  0.35186300  0.60426600  0.36137000  1
  N  2332  1  0.27319000  0.65265700  0.38322700  1
  N  2339  1  0.30912700  0.69459900  0.43003500  1
  N  2340  1  0.29893400  0.60877600  0.34506100  1
  N  2357  1  0.34030800  0.63881400  0.73808300  1
  N  2360  1  0.29749900  0.59390700  0.70260400  1
  N  2361  1  0.35308800  0.67699500  0.64421200  1
  N  2362  1  0.27234700  0.65393100  0.69060800  1
  N  2369  1  0.30849500  0.60850200  0.73420300  1
  N  2370  1  0.29945800  0.69264800  0.64756500  1
  N  2387  1  0.34122100  0.35986300  0.33937700  1
  N  2390  1  0.29716400  0.40430700  0.37483600  1
  N  2391  1  0.35246000  0.32154200  0.43350800  1
  N  2392  1  0.27272900  0.34410300  0.38616100  1
  N  2399  1  0.30881800  0.38998000  0.34327400  1
  N  2400  1  0.29906800  0.30566600  0.42965500  1
  N  2417  1  0.87498800  0.15306500  0.27794400  1
  N  2420  1  0.86446400  0.17466300  0.33721100  1
  N  2421  1  0.02199200  0.18497400  0.30075600  1
  N  2422  1  0.94259200  0.13849900  0.32547100  1
  N  2429  1  0.84628800  0.15536000  0.30888000  1
  N  2430  1  0.03387100  0.15123000  0.31603500  1
  N  2447  1  0.87530700  0.84554000  0.79938700  1
  N  2450  1  0.86438900  0.82346600  0.74032800  1
  N  2451  1  0.02203400  0.81339600  0.77703000  1
  N  2452  1  0.94272600  0.85950100  0.75151500  1
  N  2459  1  0.84645000  0.84305000  0.76852900  1
  N  2460  1  0.03395300  0.84696800  0.76139100  1
  N  2477  1  0.87590000  0.75961300  0.19180400  1
  N  2480  1  0.86422400  0.70087100  0.21452800  1
  N  2481  1  0.02199500  0.73733000  0.22494700  1
  N  2482  1  0.94316300  0.71138300  0.17874800  1
  N  2489  1  0.84670800  0.72895900  0.19454000  1
  N  2490  1  0.03425700  0.72144900  0.19153300  1
  N  2507  1  0.87474200  0.23817900  0.88425000  1
  N  2510  1  0.86440100  0.29778000  0.86359000  1
  N  2511  1  0.02178000  0.26146600  0.85245700  1
  N  2512  1  0.94236300  0.28524000  0.89941100  1
  N  2519  1  0.84622200  0.26922000  0.88250700  1
  N  2520  1  0.03366400  0.27616500  0.88644900  1
  N  2537  1  0.00567000  0.84524300  0.27795000  1
  N  2540  1  0.01619200  0.82364900  0.33721900  1
  N  2541  1  0.85866700  0.81333100  0.30076000  1
  N  2542  1  0.93806500  0.85980700  0.32547700  1
  N  2549  1  0.03436700  0.84295100  0.30888800  1
  N  2550  1  0.84678500  0.84707500  0.31603800  1
  N  2567  1  0.00537000  0.15282000  0.79939200  1
  N  2570  1  0.01631900  0.17486000  0.74032100  1
  N  2571  1  0.85868700  0.18501300  0.77704800  1
  N  2572  1  0.93792500  0.13887100  0.75150900  1
  N  2579  1  0.03424100  0.15529000  0.76853800  1
  N  2580  1  0.84672000  0.15144300  0.76142200  1
  N  2597  1  0.00476300  0.23869300  0.19180600  1
  N  2600  1  0.01643000  0.29743600  0.21452800  1
  N  2601  1  0.85866300  0.26097200  0.22494200  1
  N  2602  1  0.93749600  0.28691900  0.17874400  1
  N  2609  1  0.03395000  0.26934800  0.19454200  1
  N  2610  1  0.84639900  0.27684900  0.19152700  1
  N  2627  1  0.00581600  0.76007600  0.88428400  1
  N  2630  1  0.01629000  0.70046600  0.86368100  1
  N  2631  1  0.85887600  0.73675900  0.85244700  1
  N  2632  1  0.93824800  0.71296100  0.89942000  1
  N  2639  1  0.03439500  0.72905500  0.88257800  1
  N  2640  1  0.84696400  0.72207600  0.88644300  1
  N  2657  1  0.37445300  0.65289300  0.77921600  1
  N  2660  1  0.36508500  0.67124200  0.83964000  1
  N  2661  1  0.52185500  0.68452500  0.80437300  1
  N  2662  1  0.44325200  0.63537500  0.82455300  1
  N  2669  1  0.34613600  0.65375200  0.81041300  1
  N  2670  1  0.53441500  0.64980600  0.81706200  1
  N  2687  1  0.37484100  0.34579000  0.29810200  1
  N  2690  1  0.36507100  0.32690100  0.23787100  1
  N  2691  1  0.52193300  0.31377800  0.27349600  1
  N  2692  1  0.44351000  0.36263900  0.25235200  1
  N  2699  1  0.34636400  0.34471100  0.26697500  1
  N  2700  1  0.53459600  0.34831900  0.26037800  1
  N  2717  1  0.37518900  0.25844900  0.69177900  1
  N  2720  1  0.36488400  0.19833400  0.71087800  1
  N  2721  1  0.52182700  0.23337600  0.72457500  1
  N  2722  1  0.44370300  0.21268700  0.67532000  1
  N  2729  1  0.34651200  0.22744500  0.69286400  1
  N  2730  1  0.53471600  0.22046800  0.68998100  1
  N  2747  1  0.37431100  0.73940300  0.38449200  1
  N  2750  1  0.36505100  0.80012300  0.36716800  1
  N  2751  1  0.52169500  0.76512000  0.35299800  1
  N  2752  1  0.44307900  0.78422900  0.40256900  1
  N  2759  1  0.34615100  0.77067100  0.38424500  1
  N  2760  1  0.53425300  0.77717400  0.38793400  1
  N  2777  1  0.50620700  0.34541600  0.77922500  1
  N  2780  1  0.51557200  0.32707100  0.83965000  1
  N  2781  1  0.35880400  0.31378200  0.80438000  1
  N  2782  1  0.43740400  0.36293300  0.82456000  1
  N  2789  1  0.53451900  0.34456100  0.81042400  1
  N  2790  1  0.34624200  0.34850000  0.81706700  1
  N  2807  1  0.50583300  0.65257100  0.29810400  1
  N  2810  1  0.51563700  0.67142300  0.23786500  1
  N  2811  1  0.35878200  0.68462100  0.27347900  1
  N  2812  1  0.43715400  0.63572200  0.25234900  1
  N  2819  1  0.53432600  0.65362900  0.26698200  1
  N  2820  1  0.34608200  0.65007900  0.26038200  1
  N  2837  1  0.50546700  0.73985800  0.69177400  1
  N  2840  1  0.51577300  0.79996900  0.71088200  1
  N  2841  1  0.35883300  0.76491600  0.72456700  1
  N  2842  1  0.43695300  0.78562700  0.67532100  1
  N  2849  1  0.53414700  0.77086000  0.69286500  1
  N  2850  1  0.34593900  0.77783200  0.68997600  1
  N  2867  1  0.50626100  0.25885500  0.38450200  1
  N  2870  1  0.51563500  0.19811600  0.36727000  1
  N  2871  1  0.35896500  0.23310000  0.35298400  1
  N  2872  1  0.43753800  0.21399000  0.40258200  1
  N  2879  1  0.53447200  0.22760300  0.38431100  1
  N  2880  1  0.34638000  0.22107400  0.38792500  1
  O  985  1  0.20759800  0.04677000  0.24381300  1
  O  986  1  0.10489900  0.97460700  0.24529500  1
  O  987  1  0.16887000  0.04118700  0.23614100  1
  O  988  1  0.08830600  0.97681900  0.26951000  1
  O  1015  1  0.20785200  0.95137500  0.83358900  1
  O  1016  1  0.10520100  0.02366100  0.83256100  1
  O  1017  1  0.16919600  0.95698800  0.84138200  1
  O  1018  1  0.08839600  0.02137100  0.80841400  1
  O  1045  1  0.20876400  0.79378300  0.08770300  1
  O  1046  1  0.11151700  0.79762600  0.01322400  1
  O  1047  1  0.17061100  0.80227000  0.08172800  1
  O  1048  1  0.09107200  0.77487400  0.01713900  1
  O  1075  1  0.20872300  0.20449600  0.99008800  1
  O  1076  1  0.10929700  0.20222400  0.06351000  1
  O  1077  1  0.17040900  0.19624000  0.99597300  1
  O  1078  1  0.09013200  0.22552500  0.06023600  1
  O  1105  1  0.67307000  0.95154100  0.24381100  1
  O  1106  1  0.77577800  0.02370200  0.24530700  1
  O  1107  1  0.71179900  0.95712300  0.23614100  1
  O  1108  1  0.79236100  0.02149700  0.26952400  1
  O  1135  1  0.67271800  0.04698600  0.83348000  1
  O  1136  1  0.77538500  0.97465300  0.83264800  1
  O  1137  1  0.71131700  0.04135800  0.84137500  1
  O  1138  1  0.79228400  0.97695300  0.80852800  1
  O  1165  1  0.67190400  0.20454900  0.08765600  1
  O  1166  1  0.76913500  0.20068500  0.01316400  1
  O  1167  1  0.71006100  0.19605600  0.08170400  1
  O  1168  1  0.78963000  0.22341600  0.01709600  1
  O  1195  1  0.67195400  0.79382400  0.99008700  1
  O  1196  1  0.77139000  0.79607600  0.06350300  1
  O  1197  1  0.71027300  0.80207400  0.99596700  1
  O  1198  1  0.79054700  0.77277100  0.06023200  1
  O  1225  1  0.70895000  0.54815200  0.74255300  1
  O  1226  1  0.61442700  0.47256900  0.73786600  1
  O  1227  1  0.67050300  0.54243200  0.73442600  1
  O  1228  1  0.59302000  0.47679200  0.76019800  1
  O  1255  1  0.70911600  0.45000400  0.33487300  1
  O  1256  1  0.61476500  0.52569500  0.33990400  1
  O  1257  1  0.67073700  0.45577100  0.34309300  1
  O  1258  1  0.59318200  0.52141100  0.31765400  1
  O  1285  1  0.71019700  0.29471200  0.58864400  1
  O  1286  1  0.61933900  0.30286700  0.51153800  1
  O  1287  1  0.67231200  0.30365200  0.58262200  1
  O  1288  1  0.59571800  0.28166400  0.51666000  1
  O  1315  1  0.71002300  0.70342000  0.48898100  1
  O  1316  1  0.61788800  0.69616500  0.56543400  1
  O  1317  1  0.67197100  0.69472200  0.49492900  1
  O  1318  1  0.59493000  0.71774100  0.56065400  1
  O  1345  1  0.17172200  0.45015700  0.74255100  1
  O  1346  1  0.26624700  0.52574000  0.73787200  1
  O  1347  1  0.21016800  0.45587700  0.73442600  1
  O  1348  1  0.28764800  0.52152100  0.76020700  1
  O  1375  1  0.17149300  0.54835600  0.33476900  1
  O  1376  1  0.26582600  0.47262100  0.33995600  1
  O  1377  1  0.20982100  0.54257800  0.34307400  1
  O  1378  1  0.28748100  0.47690700  0.31773600  1
  O  1405  1  0.17046600  0.70361600  0.58859400  1
  O  1406  1  0.26138000  0.69548700  0.51150800  1
  O  1407  1  0.20836000  0.69467700  0.58259700  1
  O  1408  1  0.28501200  0.71668400  0.51663400  1
  O  1435  1  0.17064900  0.29489600  0.48897700  1
  O  1436  1  0.26278000  0.30215100  0.56543200  1
  O  1437  1  0.20870100  0.30359400  0.49492100  1
  O  1438  1  0.28574000  0.28057500  0.56065100  1
  O  1465  1  0.27186100  0.13936500  0.43024400  1
  O  1466  1  0.19571400  0.13391600  0.34080000  1
  O  1467  1  0.28029600  0.14412500  0.40472400  1
  O  1468  1  0.20597400  0.10878800  0.34617200  1
  O  1495  1  0.27196700  0.85886300  0.64728000  1
  O  1496  1  0.19564000  0.86420100  0.73666200  1
  O  1497  1  0.28027800  0.85411500  0.67282000  1
  O  1498  1  0.20602100  0.88931800  0.73133000  1
  O  1525  1  0.27189200  0.60748300  0.17886800  1
  O  1526  1  0.19559400  0.69687100  0.17398800  1
  O  1527  1  0.28021700  0.63301000  0.18366800  1
  O  1528  1  0.20593500  0.69171000  0.14882700  1
  O  1555  1  0.27174700  0.39087400  0.89866200  1
  O  1556  1  0.19575000  0.30139900  0.90349500  1
  O  1557  1  0.28013400  0.36536400  0.89381000  1
  O  1558  1  0.20600900  0.30662100  0.92865600  1
  O  1585  1  0.60877000  0.85893900  0.43022700  1
  O  1586  1  0.68493900  0.86438800  0.34079100  1
  O  1587  1  0.60034100  0.85417500  0.40470700  1
  O  1588  1  0.67467700  0.88951700  0.34616400  1
  O  1615  1  0.60871300  0.13942700  0.64729300  1
  O  1616  1  0.68500600  0.13417400  0.73668100  1
  O  1617  1  0.60040000  0.14418900  0.67283000  1
  O  1618  1  0.67465900  0.10904800  0.73136900  1
  O  1645  1  0.60881300  0.39086700  0.17883400  1
  O  1646  1  0.68506500  0.30144600  0.17400600  1
  O  1647  1  0.60046100  0.36534600  0.18365000  1
  O  1648  1  0.67471800  0.30660000  0.14884500  1
  O  1675  1  0.60889600  0.60742400  0.89865800  1
  O  1676  1  0.68488400  0.69690100  0.90350800  1
  O  1677  1  0.60050600  0.63293300  0.89380800  1
  O  1678  1  0.67462000  0.69167700  0.92866700  1
  O  1705  1  0.60757300  0.86020000  0.64856900  1
  O  1706  1  0.68754400  0.86379600  0.73649300  1
  O  1707  1  0.60018900  0.85542600  0.67422100  1
  O  1708  1  0.67837400  0.88916400  0.73145000  1
  O  1735  1  0.60718700  0.13799000  0.42874400  1
  O  1736  1  0.68757300  0.13471900  0.34098600  1
  O  1737  1  0.60001200  0.14283100  0.40307800  1
  O  1738  1  0.67832300  0.10934500  0.34593700  1
  O  1765  1  0.60738600  0.38902700  0.89995900  1
  O  1766  1  0.68809900  0.30145600  0.90342200  1
  O  1767  1  0.60032900  0.36333100  0.89521300  1
  O  1768  1  0.67879000  0.30639800  0.92878900  1
  O  1795  1  0.60733300  0.60929800  0.17756200  1
  O  1796  1  0.68769500  0.69700900  0.17404000  1
  O  1797  1  0.60019500  0.63497800  0.18234400  1
  O  1798  1  0.67833300  0.69203800  0.14868700  1
  O  1825  1  0.27308000  0.13810600  0.64855600  1
  O  1826  1  0.19312800  0.13451800  0.73648500  1
  O  1827  1  0.28046700  0.14288000  0.67420900  1
  O  1828  1  0.20228900  0.10914900  0.73144300  1
  O  1855  1  0.27353300  0.86034700  0.42869700  1
  O  1856  1  0.19308200  0.86361100  0.34097300  1
  O  1857  1  0.28068200  0.85550000  0.40303000  1
  O  1858  1  0.20232700  0.88898600  0.34591900  1
  O  1885  1  0.27328400  0.60929600  0.89995000  1
  O  1886  1  0.19258600  0.69688500  0.90343800  1
  O  1887  1  0.28035500  0.63499100  0.89520500  1
  O  1888  1  0.20192000  0.69194000  0.92880000  1
  O  1915  1  0.27331800  0.38902500  0.17755900  1
  O  1916  1  0.19297000  0.30130600  0.17405200  1
  O  1917  1  0.28046100  0.36334400  0.18234300  1
  O  1918  1  0.20233000  0.30627600  0.14869700  1
  O  1945  1  0.10877900  0.15840200  0.13524500  1
  O  1946  1  0.02353800  0.09292900  0.20363300  1
  O  1947  1  0.07352100  0.15233100  0.12261900  1
  O  1948  1  0.00810500  0.11104100  0.22028700  1
  O  1975  1  0.10858400  0.83990700  0.94247500  1
  O  1976  1  0.02290500  0.90510600  0.87354400  1
  O  1977  1  0.07311900  0.84575500  0.95497100  1
  O  1978  1  0.00814300  0.88678300  0.85687100  1
  O  2005  1  0.10736500  0.90358000  0.19734100  1
  O  2006  1  0.01918100  0.83270300  0.13386100  1
  O  2007  1  0.07115900  0.91558100  0.19239500  1
  O  2008  1  0.00728400  0.81594200  0.15293900  1
  O  2035  1  0.10766700  0.09493300  0.87995900  1
  O  2036  1  0.02026600  0.16523900  0.94404100  1
  O  2037  1  0.07170200  0.08274800  0.88517700  1
  O  2038  1  0.00770300  0.18203900  0.92517300  1
  O  2065  1  0.77188400  0.83990700  0.13524500  1
  O  2066  1  0.85712600  0.90537800  0.20363400  1
  O  2067  1  0.80714400  0.84598000  0.12261900  1
  O  2068  1  0.87256000  0.88726600  0.22028900  1
  O  2095  1  0.77289800  0.15814200  0.94311800  1
  O  2096  1  0.85937200  0.09380200  0.87293200  1
  O  2097  1  0.80883500  0.15269100  0.95523400  1
  O  2098  1  0.87257200  0.11253300  0.85617900  1
  O  2125  1  0.77331100  0.09471600  0.19733200  1
  O  2126  1  0.86150300  0.16561500  0.13386500  1
  O  2127  1  0.80952600  0.08272500  0.19239500  1
  O  2128  1  0.87336900  0.18238000  0.15294800  1
  O  2155  1  0.77298600  0.90338200  0.87995800  1
  O  2156  1  0.86038400  0.83306900  0.94403200  1
  O  2157  1  0.80894500  0.91556800  0.88518100  1
  O  2158  1  0.87295400  0.81627300  0.92516300  1
  O  2185  1  0.60890800  0.65845000  0.63671500  1
  O  2186  1  0.52497900  0.59283000  0.70346400  1
  O  2187  1  0.57389400  0.65221700  0.62388900  1
  O  2188  1  0.50768200  0.61017100  0.72018900  1
  O  2215  1  0.60857500  0.33992800  0.44109600  1
  O  2216  1  0.52419200  0.40520700  0.37367600  1
  O  2217  1  0.57333500  0.34594200  0.45377500  1
  O  2218  1  0.50761500  0.38760700  0.35692500  1
  O  2245  1  0.60720700  0.40242600  0.69745500  1
  O  2246  1  0.52036200  0.33290500  0.63369900  1
  O  2247  1  0.57111800  0.41454000  0.69242300  1
  O  2248  1  0.50692600  0.31592200  0.65215000  1
  O  2275  1  0.60757700  0.59615300  0.37982500  1
  O  2276  1  0.52138800  0.66511200  0.44406800  1
  O  2277  1  0.57175000  0.58384400  0.38514700  1
  O  2278  1  0.50728200  0.68209800  0.42582600  1
  O  2305  1  0.27175500  0.33985800  0.63671600  1
  O  2306  1  0.35568500  0.40547700  0.70346700  1
  O  2307  1  0.30677200  0.34609300  0.62389200  1
  O  2308  1  0.37298400  0.38813500  0.72019000  1
  O  2335  1  0.27292200  0.65812700  0.44177900  1
  O  2336  1  0.35808300  0.59363700  0.37308800  1
  O  2337  1  0.30863900  0.65250300  0.45408400  1
  O  2338  1  0.37313200  0.61167800  0.35621600  1
  O  2365  1  0.27346200  0.59587000  0.69744600  1
  O  2366  1  0.36031600  0.66540900  0.63369900  1
  O  2367  1  0.30956000  0.58376300  0.69242000  1
  O  2368  1  0.37372700  0.68239500  0.65215600  1
  O  2395  1  0.27307800  0.40216100  0.37982500  1
  O  2396  1  0.35926500  0.33319600  0.44406000  1
  O  2397  1  0.30890300  0.41447200  0.38515100  1
  O  2398  1  0.37337600  0.31621400  0.42581500  1
  O  2425  1  0.87230800  0.16543000  0.34970000  1
  O  2426  1  0.01960700  0.18736600  0.28469200  1
  O  2427  1  0.86454900  0.19029300  0.34185900  1
  O  2428  1  0.02125700  0.19944900  0.30826300  1
  O  2455  1  0.87224900  0.83257600  0.72775200  1
  O  2456  1  0.01954000  0.81121800  0.79311900  1
  O  2457  1  0.86434400  0.80779900  0.73580500  1
  O  2458  1  0.02137900  0.79882300  0.76971700  1
  O  2485  1  0.87208200  0.68816700  0.20559700  1
  O  2486  1  0.01949000  0.75343100  0.22702100  1
  O  2487  1  0.86396200  0.69652300  0.23024400  1
  O  2488  1  0.02117700  0.73010100  0.23956000  1
  O  2515  1  0.87242200  0.31009600  0.87299100  1
  O  2516  1  0.01943300  0.24545100  0.84974000  1
  O  2517  1  0.86434400  0.30268300  0.84803700  1
  O  2518  1  0.02101600  0.26926300  0.83813800  1
  O  2545  1  0.00834700  0.83288200  0.34970600  1
  O  2546  1  0.86105200  0.81093900  0.28469500  1
  O  2547  1  0.01611100  0.80801800  0.34186700  1
  O  2548  1  0.85940200  0.79885600  0.30826600  1
  O  2575  1  0.00845100  0.16574800  0.72774900  1
  O  2576  1  0.86119700  0.18719200  0.79313400  1
  O  2577  1  0.01637700  0.19052600  0.73579200  1
  O  2578  1  0.85935200  0.19958500  0.76973100  1
  O  2605  1  0.00857100  0.31013900  0.20559500  1
  O  2606  1  0.86116800  0.24487100  0.22701800  1
  O  2607  1  0.01668900  0.30178500  0.23024200  1
  O  2608  1  0.85947800  0.26820300  0.23955500  1
  O  2635  1  0.00827100  0.68815400  0.87308900  1
  O  2636  1  0.86124100  0.75277200  0.84973000  1
  O  2637  1  0.01638200  0.69554600  0.84813300  1
  O  2638  1  0.85963800  0.72896000  0.83812900  1
  O  2665  1  0.37301400  0.66130500  0.85155100  1
  O  2666  1  0.51977100  0.68829500  0.78855800  1
  O  2667  1  0.36540000  0.68659300  0.84513900  1
  O  2668  1  0.52052000  0.69827200  0.81311200  1
  O  2695  1  0.37303900  0.33670300  0.22585900  1
  O  2696  1  0.51971400  0.31025200  0.28936000  1
  O  2697  1  0.36523600  0.31150100  0.23251100  1
  O  2698  1  0.52066900  0.29989800  0.26496500  1
  O  2725  1  0.37288800  0.18627100  0.70115000  1
  O  2726  1  0.51970800  0.24920900  0.72825900  1
  O  2727  1  0.36486000  0.19302300  0.72629500  1
  O  2728  1  0.52035000  0.22470500  0.73835800  1
  O  2755  1  0.37316900  0.81184400  0.37727000  1
  O  2756  1  0.51965500  0.74938600  0.34889800  1
  O  2757  1  0.36519500  0.80588800  0.35191400  1
  O  2758  1  0.52032300  0.77414600  0.33944000  1
  O  2785  1  0.50764100  0.33700800  0.85156200  1
  O  2786  1  0.36088900  0.31001200  0.78856500  1
  O  2787  1  0.51525900  0.31172100  0.84515000  1
  O  2788  1  0.36013900  0.30003500  0.81312000  1
  O  2815  1  0.50766800  0.66161700  0.22585500  1
  O  2816  1  0.36100700  0.68815300  0.28934200  1
  O  2817  1  0.51548500  0.68682100  0.23249700  1
  O  2818  1  0.36005600  0.69849600  0.26494200  1
  O  2845  1  0.50777300  0.81203500  0.70115500  1
  O  2846  1  0.36095400  0.74908200  0.72824600  1
  O  2847  1  0.51579600  0.80527800  0.72630000  1
  O  2848  1  0.36030400  0.77358400  0.73835300  1
  O  2875  1  0.50751700  0.18640700  0.37738300  1
  O  2876  1  0.36102300  0.24883100  0.34887600  1
  O  2877  1  0.51552600  0.19232800  0.35202500  1
  O  2878  1  0.36033400  0.22406700  0.33942900  1
