# generated using pymatgen
data_H40C45(N2O)4
_symmetry_space_group_name_H-M   'P 1'
_cell_length_a   32.47450000
_cell_length_b   62.37100000
_cell_length_c   62.37090000
_cell_angle_alpha   90.00000000
_cell_angle_beta   89.99980000
_cell_angle_gamma   90.00000000
_symmetry_Int_Tables_number   1
_chemical_formula_structural   H40C45(N2O)4
_chemical_formula_sum   'H640 C720 N128 O64'
_cell_volume   126330.20217318
_cell_formula_units_Z   16
loop_
 _symmetry_equiv_pos_site_id
 _symmetry_equiv_pos_as_xyz
  1  'x, y, z'
loop_
 _atom_site_type_symbol
 _atom_site_label
 _atom_site_symmetry_multiplicity
 _atom_site_fract_x
 _atom_site_fract_y
 _atom_site_fract_z
 _atom_site_occupancy
  H  25  1  0.85527000  0.11290800  0.32012500  1
  H  26  1  0.91927100  0.11973900  0.33756400  1
  H  27  1  0.07241000  0.12250600  0.33687600  1
  H  28  1  0.13665100  0.11827000  0.31867700  1
  H  29  1  0.07533200  0.09153100  0.26578200  1
  H  30  1  0.91796200  0.08704400  0.26724800  1
  H  31  1  0.00174700  0.06050700  0.30630900  1
  H  32  1  0.01421900  0.01138000  0.26057500  1
  H  33  1  0.00695900  0.03691500  0.23235200  1
  H  34  1  0.99209100  0.13844700  0.27913800  1
  H  35  1  0.99123800  0.11147000  0.20639600  1
  H  36  1  0.98700700  0.14917600  0.21270500  1
  H  39  1  0.99470800  0.13058700  0.32749800  1
  H  40  1  0.99727000  0.10459900  0.33889800  1
  H  42  1  0.02465500  0.07697400  0.22409000  1
  H  43  1  0.97027100  0.07462800  0.22470700  1
  H  45  1  0.98299800  0.17427000  0.26728800  1
  H  46  1  0.96179600  0.17753300  0.24164900  1
  H  48  1  0.01004400  0.02431900  0.31928300  1
  H  49  1  0.04482600  0.01136200  0.30189500  1
  H  51  1  0.16236400  0.11798600  0.27518400  1
  H  52  1  0.14731300  0.09366300  0.26375900  1
  H  54  1  0.83195300  0.11041000  0.27385800  1
  H  55  1  0.84555800  0.08412900  0.26731500  1
  H  80  1  0.85598100  0.81051500  0.60312200  1
  H  81  1  0.92013000  0.80369800  0.58580800  1
  H  82  1  0.07329700  0.80096600  0.58682900  1
  H  83  1  0.13738700  0.80525300  0.60516000  1
  H  84  1  0.07561200  0.83208800  0.65786100  1
  H  85  1  0.91827000  0.83645800  0.65609100  1
  H  86  1  0.00219000  0.86298800  0.61714200  1
  H  87  1  0.01414600  0.91220700  0.66281200  1
  H  88  1  0.00686600  0.88670600  0.69106700  1
  H  89  1  0.99247900  0.78510100  0.64439400  1
  H  90  1  0.99134300  0.81215000  0.71710800  1
  H  91  1  0.98716100  0.77443300  0.71083100  1
  H  94  1  0.99551800  0.79288700  0.59604000  1
  H  95  1  0.99813600  0.81886000  0.58461300  1
  H  97  1  0.02474300  0.84666000  0.69940400  1
  H  98  1  0.97035400  0.84896200  0.69873400  1
  H  100  1  0.98317300  0.74930200  0.65626400  1
  H  101  1  0.96199300  0.74606400  0.68190900  1
  H  103  1  0.01048100  0.89914800  0.60411800  1
  H  104  1  0.04499900  0.91220800  0.62156300  1
  H  106  1  0.16268100  0.80566200  0.64879700  1
  H  107  1  0.14756200  0.83005900  0.66002500  1
  H  109  1  0.83229200  0.81295700  0.64924300  1
  H  110  1  0.84586900  0.83919700  0.65597200  1
  H  135  1  0.85601200  0.60315300  0.11317200  1
  H  136  1  0.92017300  0.58583000  0.11995200  1
  H  137  1  0.07334700  0.58686300  0.12263300  1
  H  138  1  0.13742200  0.60520000  0.11832300  1
  H  139  1  0.07560300  0.65787800  0.09147500  1
  H  140  1  0.91826400  0.65610000  0.08716100  1
  H  141  1  0.00216000  0.61712700  0.06061600  1
  H  142  1  0.01405500  0.66276500  0.01136200  1
  H  143  1  0.00679400  0.69103800  0.03684600  1
  H  144  1  0.99251300  0.64443100  0.13848700  1
  H  145  1  0.99131500  0.71712700  0.11138700  1
  H  146  1  0.98715200  0.71087600  0.14910900  1
  H  149  1  0.99557400  0.59606900  0.13072600  1
  H  150  1  0.99816300  0.58462800  0.10475900  1
  H  152  1  0.02471400  0.69940400  0.07688400  1
  H  153  1  0.97032300  0.69872700  0.07459300  1
  H  155  1  0.98322900  0.65632300  0.17427800  1
  H  156  1  0.96199000  0.68195800  0.17749400  1
  H  158  1  0.01039100  0.60407900  0.02446500  1
  H  159  1  0.04490300  0.62151000  0.01138100  1
  H  161  1  0.16268000  0.64885300  0.11788500  1
  H  162  1  0.14755000  0.66005100  0.09347400  1
  H  164  1  0.83225500  0.64918000  0.11076200  1
  H  165  1  0.84586300  0.65604400  0.08456300  1
  H  190  1  0.85519000  0.32016800  0.81078000  1
  H  191  1  0.91917200  0.33761100  0.80391800  1
  H  192  1  0.07231200  0.33694900  0.80109900  1
  H  193  1  0.13656800  0.31876100  0.80530600  1
  H  194  1  0.07531600  0.26583800  0.83203000  1
  H  195  1  0.91795000  0.26727300  0.83657500  1
  H  196  1  0.00171000  0.30633800  0.86309400  1
  H  197  1  0.01424000  0.26058900  0.91220400  1
  H  198  1  0.00699400  0.23237300  0.88665600  1
  H  199  1  0.99204200  0.27920200  0.78514700  1
  H  200  1  0.99130600  0.20644400  0.81208600  1
  H  201  1  0.98706200  0.21277200  0.77438300  1
  H  204  1  0.99461600  0.32755800  0.79302900  1
  H  205  1  0.99717800  0.33894600  0.81902100  1
  H  207  1  0.02470100  0.22413300  0.84659000  1
  H  208  1  0.97031400  0.22473000  0.84894200  1
  H  210  1  0.98294500  0.26736800  0.74932200  1
  H  211  1  0.96182700  0.24171500  0.74603800  1
  H  213  1  0.01000500  0.31930100  0.89928400  1
  H  214  1  0.04482600  0.30191900  0.91222100  1
  H  216  1  0.16233300  0.27531200  0.80553500  1
  H  217  1  0.14729500  0.26381000  0.82982400  1
  H  219  1  0.83193200  0.27381500  0.81332000  1
  H  220  1  0.84555200  0.26739700  0.83963000  1
  H  245  1  0.14000600  0.80320100  0.31540300  1
  H  246  1  0.07624400  0.79369000  0.33195900  1
  H  247  1  0.92289200  0.79299300  0.33276900  1
  H  248  1  0.85816800  0.80212300  0.31698100  1
  H  249  1  0.91880900  0.83951100  0.27076200  1
  H  250  1  0.07640000  0.83985200  0.26963800  1
  H  251  1  0.99985700  0.85803400  0.31655600  1
  H  252  1  0.98389100  0.91735200  0.28569200  1
  H  253  1  0.98641300  0.89998800  0.25167800  1
  H  254  1  0.99729200  0.78962900  0.27044300  1
  H  255  1  0.99722100  0.83430500  0.20697900  1
  H  256  1  0.99762800  0.79614000  0.20340900  1
  H  259  1  0.99948100  0.78613800  0.32085300  1
  H  260  1  0.99946900  0.80914400  0.33751800  1
  H  262  1  0.96695400  0.86355900  0.23366600  1
  H  263  1  0.02145000  0.86509300  0.23355400  1
  H  265  1  0.96981200  0.76214600  0.22313100  1
  H  266  1  0.98808800  0.75779300  0.24933400  1
  H  268  1  0.99627900  0.88856100  0.33850200  1
  H  269  1  0.96164200  0.90704600  0.32783200  1
  H  271  1  0.83179600  0.81273400  0.27424600  1
  H  272  1  0.84673700  0.83920200  0.26959000  1
  H  274  1  0.16482900  0.81350500  0.27274200  1
  H  275  1  0.14861100  0.83961200  0.26741000  1
  H  300  1  0.14091700  0.12045100  0.60858300  1
  H  301  1  0.07733300  0.12988900  0.59181900  1
  H  302  1  0.92401000  0.13056400  0.59057300  1
  H  303  1  0.85912200  0.12149400  0.60622000  1
  H  304  1  0.91929200  0.08424400  0.65271700  1
  H  305  1  0.07689000  0.08382800  0.65421200  1
  H  306  1  0.00057600  0.06557400  0.60713200  1
  H  307  1  0.98414300  0.00633400  0.63808100  1
  H  308  1  0.98661600  0.02375200  0.67206900  1
  H  309  1  0.99784900  0.13406500  0.65311800  1
  H  310  1  0.99725800  0.08950300  0.71666400  1
  H  311  1  0.99767400  0.12767500  0.72016500  1
  H  314  1  0.00048200  0.13744100  0.60267300  1
  H  315  1  0.00061200  0.11438700  0.58607400  1
  H  317  1  0.96719100  0.06020800  0.68998100  1
  H  318  1  0.02168400  0.05866500  0.69018000  1
  H  320  1  0.97002100  0.16164300  0.70031500  1
  H  321  1  0.98855300  0.16594400  0.67415000  1
  H  323  1  0.99701800  0.03499500  0.58524000  1
  H  324  1  0.96224900  0.01656100  0.59589100  1
  H  326  1  0.83233200  0.11107700  0.64887800  1
  H  327  1  0.84719300  0.08463000  0.65373400  1
  H  329  1  0.16535300  0.11022600  0.65131700  1
  H  330  1  0.14906900  0.08413800  0.65667900  1
  H  355  1  0.14041600  0.31526900  0.12045600  1
  H  356  1  0.07671600  0.33186000  0.12999500  1
  H  357  1  0.92338500  0.33284700  0.13064600  1
  H  358  1  0.85859900  0.31716500  0.12145500  1
  H  359  1  0.91908000  0.27090300  0.08404700  1
  H  360  1  0.07667600  0.26964200  0.08369500  1
  H  361  1  0.00022000  0.31659100  0.06556500  1
  H  362  1  0.98402900  0.28574400  0.00625400  1
  H  363  1  0.98652300  0.25172600  0.02361200  1
  H  364  1  0.99760300  0.27047200  0.13396800  1
  H  365  1  0.99726700  0.20701500  0.08928200  1
  H  366  1  0.99767700  0.20343800  0.12744800  1
  H  369  1  0.99991900  0.32082100  0.13751000  1
  H  370  1  0.99998000  0.33752600  0.11453400  1
  H  372  1  0.96709300  0.23372700  0.06003800  1
  H  373  1  0.02158500  0.23357500  0.05849600  1
  H  375  1  0.96988900  0.22321300  0.16144700  1
  H  376  1  0.98838600  0.24937400  0.16580600  1
  H  378  1  0.99659600  0.33854400  0.03504200  1
  H  379  1  0.96188300  0.32789000  0.01658600  1
  H  381  1  0.83202400  0.27448400  0.11075800  1
  H  382  1  0.84699000  0.26986000  0.08428700  1
  H  384  1  0.16514600  0.27260600  0.10999200  1
  H  385  1  0.14889100  0.26740000  0.08386700  1
  H  410  1  0.14037200  0.60834600  0.80315600  1
  H  411  1  0.07668500  0.59170300  0.79366600  1
  H  412  1  0.92335100  0.59071200  0.79297500  1
  H  413  1  0.85855900  0.60640900  0.80212400  1
  H  414  1  0.91899700  0.65273700  0.83946600  1
  H  415  1  0.07657900  0.65405400  0.83978800  1
  H  416  1  0.00012800  0.60709000  0.85803200  1
  H  417  1  0.98396800  0.63804700  0.91728900  1
  H  418  1  0.98650200  0.67203400  0.89987200  1
  H  419  1  0.99749800  0.65309400  0.78955000  1
  H  420  1  0.99724600  0.71662800  0.83412700  1
  H  421  1  0.99765200  0.72014000  0.79595400  1
  H  424  1  0.99988800  0.60271800  0.78611100  1
  H  425  1  0.99993700  0.58606600  0.80912500  1
  H  427  1  0.96707100  0.68997300  0.86342300  1
  H  428  1  0.02156700  0.69011600  0.86495200  1
  H  430  1  0.96990700  0.70034500  0.76198600  1
  H  431  1  0.98825700  0.67414700  0.75767800  1
  H  433  1  0.99663900  0.58520000  0.88861100  1
  H  434  1  0.96193500  0.59586600  0.90706800  1
  H  436  1  0.83195000  0.64910700  0.81276300  1
  H  437  1  0.84691000  0.65376300  0.83923100  1
  H  439  1  0.16505000  0.65101600  0.81344300  1
  H  440  1  0.14876800  0.65638200  0.83952900  1
  H  465  1  0.35789600  0.60602400  0.82465700  1
  H  466  1  0.42268500  0.61384700  0.84117600  1
  H  467  1  0.57619600  0.61358400  0.84011300  1
  H  468  1  0.64003400  0.60608800  0.82248100  1
  H  469  1  0.57612200  0.59136800  0.76580800  1
  H  470  1  0.41873700  0.58983100  0.76746400  1
  H  471  1  0.50143900  0.56081100  0.80572800  1
  H  472  1  0.50978700  0.51249000  0.75895000  1
  H  473  1  0.50281200  0.53868700  0.73130100  1
  H  474  1  0.49820900  0.63949500  0.78018900  1
  H  475  1  0.49133300  0.61388000  0.70702700  1
  H  476  1  0.49117900  0.65147500  0.71396500  1
  H  479  1  0.49900900  0.62722100  0.83072900  1
  H  480  1  0.49953900  0.60030700  0.83982100  1
  H  482  1  0.52252900  0.57843600  0.72359100  1
  H  483  1  0.46804000  0.57730600  0.72491500  1
  H  485  1  0.49526500  0.67576000  0.76882500  1
  H  486  1  0.47010100  0.67993500  0.74433300  1
  H  488  1  0.50865700  0.52450900  0.81795400  1
  H  489  1  0.54266800  0.51176700  0.80000800  1
  H  491  1  0.64701100  0.58509000  0.76596800  1
  H  492  1  0.66740000  0.57915300  0.79109300  1
  H  494  1  0.34788500  0.58303100  0.76914600  1
  H  495  1  0.32847300  0.57846800  0.79476200  1
  H  520  1  0.35784600  0.31772500  0.09902000  1
  H  521  1  0.42261400  0.30988900  0.08248700  1
  H  522  1  0.57610700  0.31013300  0.08350300  1
  H  523  1  0.63997800  0.31751300  0.10114900  1
  H  524  1  0.57614000  0.33214500  0.15787000  1
  H  525  1  0.41874000  0.33384800  0.15621800  1
  H  526  1  0.50159600  0.36289300  0.11803700  1
  H  527  1  0.51012600  0.41107300  0.16495200  1
  H  528  1  0.50297200  0.38481100  0.19252600  1
  H  529  1  0.49825200  0.28412600  0.14339400  1
  H  530  1  0.49116000  0.30958600  0.21660500  1
  H  531  1  0.49102800  0.27201000  0.20958900  1
  H  534  1  0.49892300  0.29650200  0.09288400  1
  H  535  1  0.49947100  0.32343300  0.08384300  1
  H  537  1  0.52245800  0.34503900  0.20015000  1
  H  538  1  0.46797600  0.34621400  0.19877800  1
  H  540  1  0.49530800  0.24783500  0.15469000  1
  H  541  1  0.47018100  0.24358100  0.17917700  1
  H  543  1  0.50892200  0.39923900  0.10592000  1
  H  544  1  0.54304700  0.41187400  0.12389100  1
  H  546  1  0.64708200  0.33825700  0.15775600  1
  H  547  1  0.66744300  0.34433000  0.13265600  1
  H  549  1  0.34789100  0.34072100  0.15452500  1
  H  550  1  0.32846300  0.34527000  0.12890900  1
  H  575  1  0.35746200  0.09898400  0.60568500  1
  H  576  1  0.42216500  0.08241500  0.61360100  1
  H  577  1  0.57568800  0.08337200  0.61354800  1
  H  578  1  0.63960900  0.10098300  0.60619600  1
  H  579  1  0.57590600  0.15772700  0.59149900  1
  H  580  1  0.41854000  0.15614600  0.58962800  1
  H  581  1  0.50135600  0.11786700  0.56074600  1
  H  582  1  0.51002400  0.16468400  0.51247800  1
  H  583  1  0.50297900  0.19231400  0.53869200  1
  H  584  1  0.49759600  0.14333000  0.63945400  1
  H  585  1  0.49112600  0.21652400  0.61388900  1
  H  586  1  0.49068600  0.20955300  0.65147900  1
  H  589  1  0.49843700  0.09278600  0.62709700  1
  H  590  1  0.49910800  0.08373900  0.60017100  1
  H  592  1  0.52252000  0.19996800  0.57849100  1
  H  593  1  0.46803400  0.19868900  0.57725500  1
  H  595  1  0.49430400  0.15467800  0.67574500  1
  H  596  1  0.46937700  0.17924500  0.67989100  1
  H  598  1  0.50878000  0.10567100  0.52445000  1
  H  599  1  0.54279400  0.12362600  0.51172100  1
  H  601  1  0.64685400  0.15757200  0.58541700  1
  H  602  1  0.66717500  0.13245700  0.57937400  1
  H  604  1  0.34778300  0.15443100  0.58252500  1
  H  605  1  0.32819200  0.12882400  0.57814000  1
  H  630  1  0.35817600  0.82471200  0.31749200  1
  H  631  1  0.42302400  0.84118200  0.30968700  1
  H  632  1  0.57653800  0.84000600  0.31001800  1
  H  633  1  0.64030800  0.82233300  0.31755900  1
  H  634  1  0.57621700  0.76570400  0.33223900  1
  H  635  1  0.41883900  0.76747300  0.33370300  1
  H  636  1  0.50166100  0.80565200  0.36275900  1
  H  637  1  0.50979900  0.75883600  0.41105300  1
  H  638  1  0.50272900  0.73120900  0.38483900  1
  H  639  1  0.49844600  0.78016800  0.28405900  1
  H  640  1  0.49122200  0.70699600  0.30962200  1
  H  641  1  0.49112900  0.71396100  0.27203300  1
  H  644  1  0.49933300  0.83068000  0.29634200  1
  H  645  1  0.49986200  0.83976900  0.32325700  1
  H  647  1  0.52244900  0.72350200  0.34508800  1
  H  648  1  0.46796300  0.72488500  0.34620500  1
  H  650  1  0.49546200  0.76883700  0.24779100  1
  H  651  1  0.47021800  0.74437200  0.24358900  1
  H  653  1  0.50890600  0.81784900  0.39906800  1
  H  654  1  0.54284100  0.79986100  0.41180800  1
  H  656  1  0.64706400  0.76586000  0.33867300  1
  H  657  1  0.66750400  0.79098700  0.34453900  1
  H  659  1  0.34797400  0.76919600  0.34045300  1
  H  660  1  0.32864800  0.79482400  0.34505100  1
  H  685  1  0.64212800  0.31369700  0.82197100  1
  H  686  1  0.57875800  0.30272700  0.83805400  1
  H  687  1  0.42524100  0.30097800  0.83933100  1
  H  688  1  0.36007000  0.31143200  0.82477800  1
  H  689  1  0.41977800  0.33888200  0.77174600  1
  H  690  1  0.57706400  0.33951200  0.76977600  1
  H  691  1  0.50137700  0.35923500  0.81705100  1
  H  692  1  0.48243000  0.41773300  0.78522700  1
  H  693  1  0.48434600  0.39971000  0.75151600  1
  H  694  1  0.50079800  0.28983400  0.77240800  1
  H  695  1  0.49555400  0.33324800  0.70810000  1
  H  696  1  0.49836900  0.29508000  0.70522200  1
  H  699  1  0.50207600  0.29071200  0.82649100  1
  H  700  1  0.50156200  0.31537900  0.84058100  1
  H  702  1  0.46509400  0.36264200  0.73455000  1
  H  703  1  0.51949300  0.36476400  0.73366800  1
  H  705  1  0.47331800  0.26078500  0.72667900  1
  H  706  1  0.49697700  0.25725000  0.75184600  1
  H  708  1  0.49669400  0.38985300  0.83848100  1
  H  709  1  0.46159500  0.40800100  0.82767100  1
  H  711  1  0.34868800  0.34358300  0.77395800  1
  H  712  1  0.32992600  0.34420700  0.80011200  1
  H  714  1  0.64860600  0.34310400  0.76920800  1
  H  715  1  0.66855800  0.34652700  0.79492800  1
  H  740  1  0.64143800  0.60993300  0.10133700  1
  H  741  1  0.57793300  0.62087900  0.08537400  1
  H  742  1  0.42437500  0.62246900  0.08435000  1
  H  743  1  0.35934000  0.61191500  0.09900000  1
  H  744  1  0.41950400  0.58446400  0.15188700  1
  H  745  1  0.57677200  0.58400600  0.15361000  1
  H  746  1  0.50094600  0.56430300  0.10641600  1
  H  747  1  0.48236900  0.50571900  0.13814100  1
  H  748  1  0.48431500  0.52367800  0.17188500  1
  H  749  1  0.50038900  0.63361400  0.15119300  1
  H  750  1  0.49541900  0.59007100  0.21542200  1
  H  751  1  0.49817500  0.62823500  0.21837200  1
  H  754  1  0.50126000  0.63281200  0.09708400  1
  H  755  1  0.50077100  0.60816600  0.08295700  1
  H  757  1  0.46496700  0.56070500  0.18894000  1
  H  758  1  0.51937600  0.55862400  0.18977300  1
  H  760  1  0.47311200  0.66260000  0.19700800  1
  H  761  1  0.49670900  0.66616700  0.17182800  1
  H  763  1  0.49615500  0.53374500  0.08492200  1
  H  764  1  0.46124700  0.51552000  0.09576100  1
  H  766  1  0.34850400  0.57950200  0.14969200  1
  H  767  1  0.32953200  0.57903600  0.12358100  1
  H  769  1  0.64833900  0.58046700  0.15404500  1
  H  770  1  0.66816600  0.57711600  0.12828900  1
  H  795  1  0.64147200  0.82213700  0.60997800  1
  H  796  1  0.57796700  0.83815500  0.62084600  1
  H  797  1  0.42441200  0.83921800  0.62239800  1
  H  798  1  0.35937100  0.82456000  0.61186800  1
  H  799  1  0.41950700  0.77162400  0.58449300  1
  H  800  1  0.57678100  0.76984400  0.58411400  1
  H  801  1  0.50106000  0.81704900  0.56427800  1
  H  802  1  0.48242700  0.78524900  0.50574100  1
  H  803  1  0.48433900  0.75152800  0.52374500  1
  H  804  1  0.50037000  0.77236800  0.63365300  1
  H  805  1  0.49534500  0.70808300  0.59019400  1
  H  806  1  0.49808900  0.70518200  0.62836100  1
  H  809  1  0.50127000  0.82649400  0.63276700  1
  H  810  1  0.50082300  0.84057200  0.60809300  1
  H  812  1  0.46495200  0.73453600  0.56078300  1
  H  813  1  0.51936400  0.73367600  0.55872400  1
  H  815  1  0.47309100  0.72659300  0.66270500  1
  H  816  1  0.49670300  0.75177600  0.66623200  1
  H  818  1  0.49650900  0.83849400  0.53367100  1
  H  819  1  0.46149100  0.82768500  0.51548300  1
  H  821  1  0.34850400  0.77382300  0.57952600  1
  H  822  1  0.32954100  0.79993600  0.57902400  1
  H  824  1  0.64835400  0.76931800  0.58069900  1
  H  825  1  0.66820000  0.79505600  0.57722100  1
  H  850  1  0.64209400  0.10159900  0.31367700  1
  H  851  1  0.57871800  0.08552300  0.30270400  1
  H  852  1  0.42520100  0.08424600  0.30097600  1
  H  853  1  0.36003600  0.09879500  0.31144600  1
  H  854  1  0.41976000  0.15180500  0.33892600  1
  H  855  1  0.57704300  0.15378200  0.33952400  1
  H  856  1  0.50135900  0.10649400  0.35923900  1
  H  857  1  0.48237200  0.13828000  0.41775000  1
  H  858  1  0.48429900  0.17200300  0.39975100  1
  H  859  1  0.50082900  0.15117400  0.28986200  1
  H  860  1  0.49538200  0.21545600  0.33333333  1
  H  861  1  0.49824300  0.21835600  0.29514500  1
  H  864  1  0.50202700  0.09709500  0.29070700  1
  H  865  1  0.50153700  0.08298800  0.31536400  1
  H  867  1  0.46500400  0.18897600  0.36269200  1
  H  868  1  0.51940100  0.18988600  0.36480800  1
  H  870  1  0.47339800  0.19687900  0.26078400  1
  H  871  1  0.49724800  0.17175300  0.25727800  1
  H  873  1  0.49653000  0.08504100  0.38983300  1
  H  874  1  0.46150300  0.09587000  0.40800500  1
  H  876  1  0.34867900  0.14958400  0.34365500  1
  H  877  1  0.32990500  0.12343100  0.34425100  1
  H  879  1  0.64858500  0.15434300  0.34311500  1
  H  880  1  0.66853300  0.12862000  0.34651900  1
  H  888  1  0.05697900  0.18551300  0.17490700  1
  H  893  1  0.00312900  0.24560000  0.27859800  1
  H  894  1  0.04551500  0.22784300  0.27487200  1
  H  895  1  0.96739200  0.21754000  0.30039000  1
  H  896  1  0.01578900  0.22467300  0.31153000  1
  H  897  1  0.01050100  0.20030300  0.29712900  1
  H  899  1  0.05602000  0.23782900  0.16726000  1
  H  901  1  0.04386800  0.18737600  0.25578400  1
  H  909  1  0.05733000  0.73789000  0.74861000  1
  H  914  1  0.00385900  0.67794400  0.64502600  1
  H  915  1  0.04597700  0.69584200  0.64889800  1
  H  916  1  0.96822600  0.70579600  0.62293700  1
  H  917  1  0.01694000  0.69880800  0.61208300  1
  H  918  1  0.01103000  0.72320400  0.62637700  1
  H  920  1  0.05593600  0.68556800  0.75618100  1
  H  922  1  0.04404200  0.73620200  0.66775200  1
  H  930  1  0.05724100  0.74871400  0.18563000  1
  H  935  1  0.00385500  0.64515800  0.24564800  1
  H  936  1  0.04596800  0.64902300  0.22774500  1
  H  937  1  0.96822900  0.62304500  0.21781100  1
  H  938  1  0.01694600  0.61220000  0.22481000  1
  H  939  1  0.01103300  0.62647400  0.20040300  1
  H  941  1  0.05581000  0.75631400  0.23794900  1
  H  943  1  0.04405300  0.66785600  0.18738700  1
  H  951  1  0.05714000  0.17504900  0.73802300  1
  H  956  1  0.00319000  0.27875800  0.67800600  1
  H  957  1  0.04557400  0.27501400  0.69576100  1
  H  958  1  0.96745900  0.30053300  0.70608000  1
  H  959  1  0.01586600  0.31167200  0.69896200  1
  H  960  1  0.01055900  0.29725100  0.72331900  1
  H  962  1  0.05616000  0.16742600  0.68570200  1
  H  964  1  0.04387200  0.25592500  0.73622900  1
  H  972  1  0.55668500  0.68512700  0.67375500  1
  H  977  1  0.51480300  0.74637900  0.77901600  1
  H  978  1  0.55106900  0.72500600  0.77796700  1
  H  979  1  0.46509400  0.72233900  0.79804200  1
  H  980  1  0.51181300  0.72572400  0.81241600  1
  H  981  1  0.50265500  0.70166500  0.79810600  1
  H  983  1  0.56200600  0.73694100  0.66565500  1
  H  985  1  0.55379700  0.68886200  0.75487800  1
  H  993  1  0.55652800  0.23855500  0.24976600  1
  H  998  1  0.51430400  0.17719300  0.14434400  1
  H  999  1  0.55087500  0.19843200  0.14524700  1
  H  1000  1  0.46446500  0.20154900  0.12575400  1
  H  1001  1  0.51072900  0.19791900  0.11104500  1
  H  1002  1  0.50247000  0.22200600  0.12544900  1
  H  1004  1  0.56240400  0.18673800  0.25788300  1
  H  1006  1  0.55388300  0.23473100  0.16860600  1
  H  1014  1  0.55709500  0.24956600  0.68520800  1
  H  1019  1  0.51396300  0.14458900  0.74656100  1
  H  1020  1  0.55099200  0.14584100  0.72555000  1
  H  1021  1  0.46578600  0.12499600  0.72217000  1
  H  1022  1  0.51290300  0.11107200  0.72594300  1
  H  1023  1  0.50394200  0.12527400  0.70179200  1
  H  1025  1  0.56220300  0.25764400  0.73700100  1
  H  1027  1  0.55297500  0.16849700  0.68885000  1
  H  1035  1  0.55671000  0.67372100  0.23846600  1
  H  1040  1  0.51482800  0.77894600  0.17713400  1
  H  1041  1  0.55114600  0.77789700  0.19848200  1
  H  1042  1  0.46519200  0.79799300  0.20120300  1
  H  1043  1  0.51191500  0.81235600  0.19777200  1
  H  1044  1  0.50282200  0.79806200  0.22184800  1
  H  1046  1  0.56202500  0.66558100  0.18666800  1
  H  1048  1  0.55391400  0.75484300  0.23465200  1
  H  1056  1  0.78513200  0.09960000  0.33362500  1
  H  1061  1  0.63768700  0.14090500  0.24326800  1
  H  1062  1  0.63532800  0.15788200  0.26617900  1
  H  1063  1  0.58020500  0.11862500  0.25940700  1
  H  1064  1  0.56574800  0.14534800  0.25324800  1
  H  1065  1  0.57623900  0.13805400  0.28014400  1
  H  1067  1  0.81678700  0.07582400  0.30561000  1
  H  1069  1  0.67105500  0.15335600  0.30559300  1
  H  1077  1  0.78558100  0.82345200  0.58971900  1
  H  1082  1  0.63731500  0.78298500  0.68026000  1
  H  1083  1  0.63559900  0.76604700  0.65730800  1
  H  1084  1  0.57938900  0.80490000  0.66400700  1
  H  1085  1  0.56558800  0.77809000  0.67017600  1
  H  1086  1  0.57602700  0.78542300  0.64328600  1
  H  1088  1  0.81744000  0.84753600  0.61747400  1
  H  1090  1  0.67056500  0.77060200  0.61833000  1
  H  1098  1  0.78566500  0.58970700  0.10002900  1
  H  1103  1  0.63732400  0.68014000  0.14068400  1
  H  1104  1  0.63553800  0.65715500  0.15757400  1
  H  1105  1  0.57941100  0.66396100  0.11870600  1
  H  1106  1  0.56557200  0.67008600  0.14552200  1
  H  1107  1  0.57597400  0.64320500  0.13814100  1
  H  1109  1  0.81754800  0.61754400  0.07605200  1
  H  1111  1  0.67054700  0.61812300  0.15292000  1
  H  1119  1  0.78505500  0.33366500  0.82401500  1
  H  1124  1  0.63772400  0.24325300  0.78274200  1
  H  1125  1  0.63531900  0.26615000  0.76574600  1
  H  1126  1  0.58027600  0.25941200  0.80504100  1
  H  1127  1  0.56576600  0.25321100  0.77833600  1
  H  1128  1  0.57625400  0.28011900  0.78558300  1
  H  1130  1  0.81670700  0.30567400  0.84780800  1
  H  1132  1  0.67107600  0.30558100  0.77022300  1
  H  1140  1  0.20779600  0.82146400  0.33350300  1
  H  1145  1  0.35999300  0.79017900  0.24154800  1
  H  1146  1  0.36808200  0.77409300  0.26474400  1
  H  1147  1  0.41313600  0.81631600  0.25586500  1
  H  1148  1  0.43283700  0.79057800  0.24954300  1
  H  1149  1  0.42373200  0.79762000  0.27663600  1
  H  1151  1  0.17402700  0.84617800  0.30698400  1
  H  1153  1  0.32760700  0.77311900  0.30240500  1
  H  1161  1  0.20807000  0.10161600  0.59039500  1
  H  1166  1  0.36009700  0.13350900  0.68203800  1
  H  1167  1  0.36969000  0.14936200  0.65882700  1
  H  1168  1  0.41164900  0.10634700  0.66800900  1
  H  1169  1  0.43303100  0.13170500  0.67438100  1
  H  1170  1  0.42388300  0.12479200  0.64726100  1
  H  1172  1  0.17487700  0.07722800  0.61737200  1
  H  1174  1  0.32729300  0.15102100  0.62052200  1
  H  1182  1  0.20776600  0.33352200  0.10210300  1
  H  1187  1  0.36008200  0.24155200  0.13327600  1
  H  1188  1  0.36865500  0.26464400  0.14945300  1
  H  1189  1  0.41301900  0.25581900  0.10702000  1
  H  1190  1  0.43303800  0.24939000  0.13266300  1
  H  1191  1  0.42403700  0.27652300  0.12572400  1
  H  1193  1  0.17439000  0.30690100  0.07735300  1
  H  1195  1  0.32746000  0.30268700  0.15073400  1
  H  1203  1  0.20786800  0.59022700  0.82161000  1
  H  1208  1  0.36006000  0.68199200  0.78985900  1
  H  1209  1  0.36853800  0.65864300  0.77404600  1
  H  1210  1  0.41279700  0.66799400  0.81639500  1
  H  1211  1  0.43292700  0.67410700  0.79070100  1
  H  1212  1  0.42384300  0.64706700  0.79794600  1
  H  1214  1  0.17428500  0.61688500  0.84624500  1
  H  1216  1  0.32748400  0.62105800  0.77295400  1
  H  1224  1  0.20697400  0.82231200  0.59270500  1
  H  1229  1  0.36282300  0.78267500  0.68030500  1
  H  1230  1  0.36188000  0.76540900  0.65758800  1
  H  1231  1  0.42114500  0.80320700  0.66298100  1
  H  1232  1  0.43328100  0.77609500  0.66884400  1
  H  1233  1  0.42158600  0.78372500  0.64218500  1
  H  1235  1  0.17354800  0.84446000  0.62201400  1
  H  1237  1  0.32859600  0.77217200  0.61809200  1
  H  1245  1  0.20648800  0.10180200  0.33098700  1
  H  1250  1  0.36302300  0.14064400  0.24327400  1
  H  1251  1  0.36066700  0.15792000  0.26595200  1
  H  1252  1  0.42227800  0.12110800  0.26083700  1
  H  1253  1  0.43284100  0.14841200  0.25504300  1
  H  1254  1  0.42121300  0.14056600  0.28165000  1
  H  1256  1  0.17293700  0.07918800  0.30195400  1
  H  1258  1  0.32896500  0.15093400  0.30498000  1
  H  1266  1  0.20643400  0.33100500  0.82168000  1
  H  1271  1  0.36300700  0.24321100  0.78305200  1
  H  1272  1  0.36061800  0.26585500  0.76573400  1
  H  1273  1  0.42230900  0.26081100  0.80252000  1
  H  1274  1  0.43281000  0.25495400  0.77522400  1
  H  1275  1  0.42121000  0.28158100  0.78301800  1
  H  1277  1  0.17289000  0.30201100  0.84438000  1
  H  1279  1  0.32899300  0.30489200  0.77266700  1
  H  1287  1  0.20699300  0.59272500  0.10121100  1
  H  1292  1  0.36279800  0.68029700  0.14095400  1
  H  1293  1  0.36186800  0.65756400  0.15820000  1
  H  1294  1  0.42111800  0.66299600  0.12040000  1
  H  1295  1  0.43326200  0.66884000  0.14751600  1
  H  1296  1  0.42157600  0.64218400  0.13986400  1
  H  1298  1  0.17357200  0.62205200  0.07909400  1
  H  1300  1  0.32858700  0.61806500  0.15140000  1
  H  1308  1  0.78892300  0.10665100  0.58876600  1
  H  1313  1  0.63476500  0.12897300  0.68278000  1
  H  1314  1  0.62947800  0.14863000  0.66226600  1
  H  1315  1  0.58062100  0.10664600  0.66358500  1
  H  1316  1  0.56237300  0.13143800  0.67369900  1
  H  1317  1  0.57297200  0.12872400  0.64602100  1
  H  1319  1  0.82278600  0.08001700  0.61333100  1
  H  1321  1  0.66794500  0.15178100  0.62316600  1
  H  1329  1  0.78847300  0.81756300  0.33473600  1
  H  1334  1  0.63540200  0.79401500  0.24074100  1
  H  1335  1  0.62889300  0.77451600  0.26131600  1
  H  1336  1  0.58194800  0.81706900  0.25955400  1
  H  1337  1  0.56274800  0.79241900  0.24955900  1
  H  1338  1  0.57311000  0.79522800  0.27725900  1
  H  1340  1  0.82194500  0.84387500  0.30975300  1
  H  1342  1  0.66852100  0.77114100  0.30099500  1
  H  1350  1  0.78887900  0.58873900  0.81717600  1
  H  1355  1  0.63506400  0.68282100  0.79450300  1
  H  1356  1  0.62908400  0.66233400  0.77486500  1
  H  1357  1  0.58100000  0.66391500  0.81708500  1
  H  1358  1  0.56245600  0.67400400  0.79233900  1
  H  1359  1  0.57275300  0.64629300  0.79511300  1
  H  1361  1  0.82237300  0.61347300  0.84376800  1
  H  1363  1  0.66825900  0.62282500  0.77150900  1
  H  1371  1  0.78878400  0.33481900  0.10643100  1
  H  1376  1  0.63502700  0.24080000  0.12928200  1
  H  1377  1  0.62918200  0.26149400  0.14870700  1
  H  1378  1  0.58116600  0.25965500  0.10648000  1
  H  1379  1  0.56251400  0.24971600  0.13126200  1
  H  1380  1  0.57291300  0.27740000  0.12835200  1
  H  1382  1  0.82242900  0.31016800  0.07982500  1
  H  1384  1  0.66822800  0.30054700  0.15198900  1
  H  1392  1  0.94517700  0.97453700  0.33094100  1
  H  1397  1  0.12196600  0.90708900  0.30221100  1
  H  1398  1  0.13599000  0.91900600  0.27732300  1
  H  1399  1  0.08029100  0.88007600  0.28347300  1
  H  1400  1  0.13101700  0.88009400  0.27300200  1
  H  1401  1  0.09054900  0.89237700  0.25832800  1
  H  1403  1  0.95471400  0.00462400  0.30618600  1
  H  1405  1  0.05307000  0.91121400  0.32554600  1
  H  1413  1  0.94599900  0.94899500  0.59214300  1
  H  1418  1  0.12232000  0.01600600  0.62106600  1
  H  1419  1  0.13622100  0.00476900  0.64628100  1
  H  1420  1  0.08119800  0.04377800  0.63905500  1
  H  1421  1  0.13200400  0.04382400  0.64942100  1
  H  1422  1  0.09143000  0.03218500  0.66453500  1
  H  1424  1  0.95492600  0.91880600  0.61688300  1
  H  1426  1  0.05366500  0.01229800  0.59838900  1
  H  1434  1  0.94578100  0.59211900  0.97462200  1
  H  1439  1  0.12204700  0.62101000  0.90753000  1
  H  1440  1  0.13604000  0.64618700  0.91882200  1
  H  1441  1  0.08090100  0.63909700  0.87983300  1
  H  1442  1  0.13173000  0.64943400  0.87978100  1
  H  1443  1  0.09121800  0.66454200  0.89148600  1
  H  1445  1  0.95481900  0.61683800  0.00481700  1
  H  1447  1  0.05336400  0.59833000  0.91127400  1
  H  1455  1  0.94524200  0.33095200  0.94908800  1
  H  1460  1  0.12213800  0.30219000  0.01646200  1
  H  1461  1  0.13615400  0.27732000  0.00450600  1
  H  1462  1  0.08050500  0.28341600  0.04346400  1
  H  1463  1  0.13122600  0.27294000  0.04341200  1
  H  1464  1  0.09073300  0.25828800  0.03112200  1
  H  1466  1  0.95472000  0.30618400  0.91900000  1
  H  1468  1  0.05329400  0.32557800  0.01234200  1
  H  1476  1  0.44383100  0.47533000  0.83009400  1
  H  1481  1  0.62037200  0.40789200  0.80047900  1
  H  1482  1  0.63467200  0.42047300  0.77596400  1
  H  1483  1  0.57970900  0.38113600  0.78105200  1
  H  1484  1  0.63004400  0.38200300  0.77009500  1
  H  1485  1  0.58867300  0.39438900  0.75625500  1
  H  1487  1  0.45259100  0.50522700  0.80498300  1
  H  1489  1  0.55291300  0.41255400  0.82484600  1
  H  1497  1  0.44355000  0.44823600  0.09399700  1
  H  1502  1  0.62051700  0.51614100  0.12331700  1
  H  1503  1  0.63472500  0.50307900  0.14759900  1
  H  1504  1  0.57925400  0.54230400  0.14317800  1
  H  1505  1  0.62945900  0.54140900  0.15428700  1
  H  1506  1  0.58811000  0.52855900  0.16771600  1
  H  1508  1  0.45293600  0.41850600  0.11918200  1
  H  1510  1  0.55260500  0.51112600  0.09829700  1
  H  1518  1  0.44388300  0.09349200  0.47536800  1
  H  1523  1  0.62060900  0.12329200  0.40778000  1
  H  1524  1  0.63465400  0.14777300  0.42051700  1
  H  1525  1  0.57988500  0.14278500  0.38108700  1
  H  1526  1  0.63016700  0.15380400  0.38204500  1
  H  1527  1  0.58869200  0.16753000  0.39446100  1
  H  1529  1  0.45270500  0.11868900  0.50518500  1
  H  1531  1  0.55283600  0.09859800  0.41251200  1
  H  1539  1  0.44390800  0.83002700  0.44816100  1
  H  1544  1  0.62032000  0.80060000  0.51575800  1
  H  1545  1  0.63473100  0.77608100  0.50321900  1
  H  1546  1  0.57959600  0.78117000  0.54249200  1
  H  1547  1  0.62997700  0.77026600  0.54170000  1
  H  1548  1  0.58871700  0.75636500  0.52928400  1
  H  1550  1  0.45276100  0.80488100  0.41831400  1
  H  1552  1  0.55283300  0.82491000  0.51102100  1
  C  1  1  0.99408600  0.11003800  0.26055500  1
  C  2  1  0.99406200  0.10231100  0.23916600  1
  C  3  1  0.00044700  0.06417700  0.25247500  1
  C  4  1  0.99919500  0.07125200  0.27410200  1
  C  5  1  0.00227300  0.05563300  0.29064700  1
  C  6  1  0.00769400  0.03361200  0.28610100  1
  C  7  1  0.00975700  0.02715400  0.26445600  1
  C  8  1  0.00548400  0.04216000  0.24788800  1
  C  9  1  0.99133600  0.11690100  0.22188500  1
  C  10  1  0.98901200  0.13905400  0.22556000  1
  C  11  1  0.98942100  0.14724800  0.24661800  1
  C  12  1  0.99172100  0.13257900  0.26382900  1
  C  13  1  0.95704200  0.09818000  0.29196800  1
  C  14  1  0.95727300  0.10757500  0.31268100  1
  C  15  1  0.03517000  0.10949100  0.31210000  1
  C  16  1  0.03582500  0.10052200  0.29120300  1
  C  17  1  0.07254500  0.11565100  0.32196400  1
  C  18  1  0.11033900  0.11313000  0.31131500  1
  C  19  1  0.11199200  0.10381900  0.29074100  1
  C  20  1  0.07455600  0.09770700  0.28097000  1
  C  21  1  0.91842100  0.09336600  0.28238500  1
  C  22  1  0.88055400  0.09828400  0.29242100  1
  C  23  1  0.88181100  0.10835500  0.31264900  1
  C  24  1  0.91952900  0.11242100  0.32287500  1
  C  37  1  0.99647900  0.09487300  0.27950500  1
  C  38  1  0.99609700  0.11345900  0.32378000  1
  C  41  1  0.99732600  0.07917300  0.23411000  1
  C  44  1  0.98808500  0.17077700  0.25030900  1
  C  47  1  0.01326200  0.01733100  0.30327400  1
  C  50  1  0.15193000  0.10176200  0.27909900  1
  C  53  1  0.84080000  0.09498700  0.28083400  1
  C  56  1  0.99439700  0.81352600  0.66295100  1
  C  57  1  0.99427100  0.82127800  0.68433300  1
  C  58  1  0.00059100  0.85940300  0.67098100  1
  C  59  1  0.99948700  0.85229400  0.64936100  1
  C  60  1  0.00260200  0.86788800  0.63279600  1
  C  61  1  0.00788500  0.88992200  0.63731300  1
  C  62  1  0.00978700  0.89642000  0.65895100  1
  C  63  1  0.00550100  0.88143400  0.67553900  1
  C  64  1  0.99150300  0.80670400  0.70162500  1
  C  65  1  0.98920200  0.78454500  0.69796900  1
  C  66  1  0.98966100  0.77633300  0.67691800  1
  C  67  1  0.99204800  0.79098400  0.65969600  1
  C  68  1  0.95754100  0.82531800  0.63145600  1
  C  69  1  0.95793800  0.81590400  0.61075200  1
  C  70  1  0.03584000  0.81401500  0.61149600  1
  C  71  1  0.03632400  0.82302900  0.63237600  1
  C  72  1  0.07330600  0.80785200  0.60172600  1
  C  73  1  0.11101300  0.81040600  0.61245200  1
  C  74  1  0.11249700  0.81976800  0.63300800  1
  C  75  1  0.07497300  0.82589100  0.64267900  1
  C  76  1  0.91884600  0.83010000  0.64097200  1
  C  77  1  0.88105900  0.82515800  0.63086600  1
  C  78  1  0.88247000  0.81508300  0.61064300  1
  C  79  1  0.92027200  0.81102800  0.60049300  1
  C  92  1  0.99687900  0.82866600  0.64398700  1
  C  93  1  0.99685800  0.81002100  0.59973900  1
  C  96  1  0.99745500  0.84442700  0.68936100  1
  C  99  1  0.98828500  0.75280600  0.67323800  1
  C  102  1  0.01348900  0.90617700  0.62012000  1
  C  105  1  0.15232600  0.82186500  0.64474700  1
  C  108  1  0.84122200  0.82841900  0.64237800  1
  C  111  1  0.99440700  0.66297000  0.11004800  1
  C  112  1  0.99426500  0.68434700  0.10228100  1
  C  113  1  0.00056200  0.67096900  0.06416500  1
  C  114  1  0.99946900  0.64935500  0.07128800  1
  C  115  1  0.00256800  0.63277900  0.05570500  1
  C  116  1  0.00782700  0.63728200  0.03366700  1
  C  117  1  0.00971800  0.65891400  0.02715300  1
  C  118  1  0.00547300  0.67551300  0.04213100  1
  C  119  1  0.99149700  0.70164900  0.11684500  1
  C  120  1  0.98919900  0.69800800  0.13900600  1
  C  121  1  0.98968000  0.67696100  0.14723200  1
  C  122  1  0.99206900  0.65973000  0.13259300  1
  C  123  1  0.95754700  0.63146400  0.09828600  1
  C  124  1  0.95796300  0.61076500  0.10771300  1
  C  125  1  0.03586700  0.61151700  0.10957500  1
  C  126  1  0.03633500  0.63239200  0.10055500  1
  C  127  1  0.07334300  0.60175400  0.11573600  1
  C  128  1  0.11104400  0.61248500  0.11316700  1
  C  129  1  0.11251200  0.63303500  0.10379500  1
  C  130  1  0.07497600  0.64269800  0.09767800  1
  C  131  1  0.91884900  0.64097300  0.09350100  1
  C  132  1  0.88107500  0.63088500  0.09850000  1
  C  133  1  0.88249700  0.61066600  0.10858100  1
  C  134  1  0.92030200  0.60051000  0.11261200  1
  C  147  1  0.99688200  0.64399700  0.09492000  1
  C  148  1  0.99689200  0.59975800  0.11359000  1
  C  151  1  0.99743000  0.68935900  0.07912900  1
  C  154  1  0.98830300  0.67329900  0.17076400  1
  C  157  1  0.01339900  0.62007500  0.01742400  1
  C  160  1  0.15232900  0.64478400  0.10168600  1
  C  163  1  0.84122500  0.64239500  0.09527200  1
  C  166  1  0.99407400  0.26060400  0.81354700  1
  C  167  1  0.99408300  0.23920900  0.82126400  1
  C  168  1  0.00046000  0.25250400  0.85940200  1
  C  169  1  0.99918300  0.27413400  0.85233700  1
  C  170  1  0.00225100  0.29067400  0.86796200  1
  C  171  1  0.00768300  0.28612200  0.88998200  1
  C  172  1  0.00976900  0.26447600  0.89643000  1
  C  173  1  0.00553400  0.24791000  0.88141700  1
  C  174  1  0.99137700  0.22193700  0.80666400  1
  C  175  1  0.98904500  0.22562300  0.78451300  1
  C  176  1  0.98941800  0.24668500  0.77633100  1
  C  177  1  0.99170000  0.26388900  0.79100800  1
  C  178  1  0.95699900  0.29200000  0.82542300  1
  C  179  1  0.95720800  0.31271900  0.81604000  1
  C  180  1  0.03510200  0.31216000  0.81411300  1
  C  181  1  0.03578300  0.29125700  0.82307100  1
  C  182  1  0.07246600  0.32203900  0.80795900  1
  C  183  1  0.11026800  0.31139300  0.81045700  1
  C  184  1  0.11194500  0.29081200  0.81975000  1
  C  185  1  0.07452500  0.28103500  0.82587300  1
  C  186  1  0.91839000  0.28240100  0.83023100  1
  C  187  1  0.88051100  0.29245000  0.82536400  1
  C  188  1  0.88174000  0.31268100  0.81530000  1
  C  189  1  0.91944900  0.32290000  0.81119700  1
  C  202  1  0.99645100  0.27954700  0.82871900  1
  C  203  1  0.99601400  0.32383200  0.81015600  1
  C  206  1  0.99736000  0.23414600  0.84439900  1
  C  209  1  0.98808500  0.25039200  0.75280600  1
  C  212  1  0.01325100  0.30329000  0.90626700  1
  C  215  1  0.15189400  0.27917600  0.82177200  1
  C  218  1  0.84076900  0.28086500  0.82871000  1
  C  221  1  0.99759400  0.82187900  0.25971400  1
  C  222  1  0.99706400  0.83485000  0.24102600  1
  C  223  1  0.99409600  0.86841500  0.26376500  1
  C  224  1  0.99719300  0.85598500  0.28274500  1
  C  225  1  0.99762800  0.86685700  0.30277700  1
  C  226  1  0.99372900  0.88939000  0.30436300  1
  C  227  1  0.98836500  0.90114900  0.28525900  1
  C  228  1  0.98956900  0.89089900  0.26524500  1
  C  229  1  0.99761800  0.82510500  0.22056700  1
  C  230  1  0.99794500  0.80270900  0.21844400  1
  C  231  1  0.99719300  0.78942200  0.23672400  1
  C  232  1  0.99743400  0.79921200  0.25713400  1
  C  233  1  0.03778700  0.82455700  0.29223500  1
  C  234  1  0.03789600  0.81106300  0.31054700  1
  C  235  1  0.95986600  0.81072700  0.31100000  1
  C  236  1  0.95884000  0.82425400  0.29273100  1
  C  237  1  0.92253800  0.80307300  0.31981900  1
  C  238  1  0.88445300  0.80847600  0.31060300  1
  C  239  1  0.88247000  0.82230900  0.29276000  1
  C  240  1  0.91985000  0.83002900  0.28413400  1
  C  241  1  0.07622600  0.83049100  0.28310300  1
  C  242  1  0.11417000  0.82305100  0.29133300  1
  C  243  1  0.11330600  0.80935600  0.30930400  1
  C  244  1  0.07577900  0.80372300  0.31897400  1
  C  257  1  0.99797900  0.83173800  0.28190700  1
  C  258  1  0.99920700  0.80367900  0.32085900  1
  C  261  1  0.99487200  0.85857300  0.24212500  1
  C  264  1  0.99516700  0.76575700  0.23412800  1
  C  267  1  0.99242700  0.90030400  0.32565600  1
  C  270  1  0.84230300  0.82734700  0.28227400  1
  C  273  1  0.15385500  0.82821200  0.28041400  1
  C  276  1  0.99802500  0.10183400  0.66390700  1
  C  277  1  0.99735000  0.08889800  0.68261700  1
  C  278  1  0.99450200  0.05529400  0.65993400  1
  C  279  1  0.99774800  0.06768700  0.64093600  1
  C  280  1  0.99824300  0.05677800  0.62092400  1
  C  281  1  0.99422500  0.03424800  0.61937600  1
  C  282  1  0.98871300  0.02253000  0.63849300  1
  C  283  1  0.98989200  0.03281200  0.65848900  1
  C  284  1  0.99776600  0.09867900  0.70305800  1
  C  285  1  0.99805300  0.12107800  0.70514200  1
  C  286  1  0.99748000  0.13433200  0.68683700  1
  C  287  1  0.99787100  0.12450600  0.66644500  1
  C  288  1  0.03849500  0.09907900  0.63148500  1
  C  289  1  0.03878200  0.11253700  0.61314900  1
  C  290  1  0.96075900  0.11289200  0.61249700  1
  C  291  1  0.95954900  0.09941900  0.63080300  1
  C  292  1  0.92352300  0.12052800  0.60355500  1
  C  293  1  0.88534900  0.11516700  0.61269100  1
  C  294  1  0.88318700  0.10139500  0.63057600  1
  C  295  1  0.92047200  0.09368800  0.63932300  1
  C  296  1  0.07684900  0.09316900  0.64073300  1
  C  297  1  0.11487400  0.10061300  0.63260400  1
  C  298  1  0.11417300  0.11427900  0.61460800  1
  C  299  1  0.07674300  0.11987300  0.60481700  1
  C  312  1  0.99858200  0.09193400  0.64173100  1
  C  313  1  0.00019600  0.11990000  0.60271600  1
  C  316  1  0.99516100  0.06517300  0.68155600  1
  C  319  1  0.99547500  0.15800300  0.68938800  1
  C  322  1  0.99303600  0.02328700  0.59810800  1
  C  325  1  0.84290900  0.09641300  0.64097000  1
  C  328  1  0.15445100  0.09549800  0.64365700  1
  C  331  1  0.99784300  0.25974800  0.10171500  1
  C  332  1  0.99723300  0.24106300  0.08874300  1
  C  333  1  0.99431100  0.26380700  0.05518100  1
  C  334  1  0.99749200  0.28278400  0.06761100  1
  C  335  1  0.99796000  0.30281600  0.05673900  1
  C  336  1  0.99399100  0.30440500  0.03421000  1
  C  337  1  0.98856800  0.28530600  0.02245200  1
  C  338  1  0.98974400  0.26529000  0.03269900  1
  C  339  1  0.99771400  0.22060300  0.09848500  1
  C  340  1  0.99800600  0.21847500  0.12088100  1
  C  341  1  0.99736300  0.23675300  0.13417000  1
  C  342  1  0.99768600  0.25716500  0.12438300  1
  C  343  1  0.03813700  0.29223700  0.09903800  1
  C  344  1  0.03830400  0.31052000  0.11257000  1
  C  345  1  0.96028100  0.31105200  0.11290000  1
  C  346  1  0.95919400  0.29279800  0.09935100  1
  C  347  1  0.92298800  0.31990900  0.12055300  1
  C  348  1  0.88486800  0.31075000  0.11512000  1
  C  349  1  0.88282100  0.29293100  0.10125800  1
  C  350  1  0.92017300  0.28424800  0.09356500  1
  C  351  1  0.07655000  0.28309200  0.09307600  1
  C  352  1  0.11452100  0.29127700  0.10053100  1
  C  353  1  0.11370500  0.30921000  0.11427800  1
  C  354  1  0.07621000  0.31889800  0.11993100  1
  C  367  1  0.99829600  0.28194200  0.09185800  1
  C  368  1  0.99965400  0.32085800  0.11997000  1
  C  371  1  0.99503500  0.24216600  0.06502000  1
  C  374  1  0.99533700  0.23415400  0.15783700  1
  C  377  1  0.99268800  0.32570100  0.02330000  1
  C  380  1  0.84260800  0.28252400  0.09616800  1
  C  383  1  0.15417600  0.28034800  0.09532200  1
  C  386  1  0.99775400  0.66387300  0.82178300  1
  C  387  1  0.99718400  0.68258200  0.83472300  1
  C  388  1  0.99427100  0.65989700  0.86832400  1
  C  389  1  0.99741800  0.64089800  0.85592600  1
  C  390  1  0.99787700  0.62088400  0.86683100  1
  C  391  1  0.99391400  0.61933800  0.88936400  1
  C  392  1  0.98848800  0.63845600  0.90108900  1
  C  393  1  0.98970400  0.65845400  0.89080900  1
  C  394  1  0.99769500  0.70302600  0.82494800  1
  C  395  1  0.99796300  0.70511300  0.80254800  1
  C  396  1  0.99729200  0.68681200  0.78929200  1
  C  397  1  0.99759100  0.66641800  0.79911200  1
  C  398  1  0.03806400  0.63139600  0.82451700  1
  C  399  1  0.03825200  0.61307900  0.81103300  1
  C  400  1  0.96022900  0.61254200  0.81069000  1
  C  401  1  0.95912700  0.63081900  0.82420300  1
  C  402  1  0.92294100  0.60367000  0.80304400  1
  C  403  1  0.88481900  0.61283500  0.80845300  1
  C  404  1  0.88275600  0.63067500  0.82228800  1
  C  405  1  0.92009900  0.63937600  0.82997000  1
  C  406  1  0.07646500  0.64057200  0.83045200  1
  C  407  1  0.11444100  0.63239100  0.82300300  1
  C  408  1  0.11365100  0.61440800  0.80932100  1
  C  409  1  0.07616900  0.60468700  0.80370300  1
  C  422  1  0.99821600  0.64169600  0.83167900  1
  C  423  1  0.99960800  0.60272000  0.80365100  1
  C  426  1  0.99500400  0.68152100  0.85844900  1
  C  429  1  0.99528700  0.68937100  0.76562100  1
  C  432  1  0.99271000  0.59806700  0.90032300  1
  C  435  1  0.84253700  0.64108500  0.82736500  1
  C  438  1  0.15407500  0.64336200  0.82815800  1
  C  441  1  0.49650000  0.61144600  0.76112900  1
  C  442  1  0.49492600  0.60411300  0.73960200  1
  C  443  1  0.49869200  0.56562900  0.75202400  1
  C  444  1  0.49860300  0.57230200  0.77378300  1
  C  445  1  0.50110300  0.55627800  0.78996600  1
  C  446  1  0.50527000  0.53430600  0.78494800  1
  C  447  1  0.50620900  0.52823600  0.76317300  1
  C  448  1  0.50213800  0.54363100  0.74694800  1
  C  449  1  0.49277700  0.61903200  0.72259400  1
  C  450  1  0.49295500  0.64113300  0.72664200  1
  C  451  1  0.49565900  0.64896400  0.74778800  1
  C  452  1  0.49677700  0.63395400  0.76478000  1
  C  453  1  0.45869200  0.59936200  0.79246900  1
  C  454  1  0.45969200  0.60628200  0.81413500  1
  C  455  1  0.53772000  0.60654500  0.81349000  1
  C  456  1  0.53754400  0.60004200  0.79169100  1
  C  457  1  0.57567900  0.60907500  0.82433600  1
  C  458  1  0.61322200  0.60481500  0.81397600  1
  C  459  1  0.61389300  0.59832200  0.79233400  1
  C  460  1  0.57596200  0.59637200  0.78142900  1
  C  461  1  0.41975300  0.59517400  0.78296300  1
  C  462  1  0.38241600  0.59738200  0.79438400  1
  C  463  1  0.38424300  0.60453300  0.81579600  1
  C  464  1  0.42234300  0.60898200  0.82550500  1
  C  477  1  0.49777100  0.59586200  0.77975300  1
  C  478  1  0.49901500  0.61047600  0.82553300  1
  C  481  1  0.49591200  0.58104100  0.73402700  1
  C  484  1  0.49714600  0.67247000  0.75167600  1
  C  487  1  0.51120000  0.51776300  0.80180500  1
  C  490  1  0.65321600  0.59200600  0.78173800  1
  C  493  1  0.34248400  0.59075900  0.78461600  1
  C  496  1  0.49646000  0.31213600  0.16251100  1
  C  497  1  0.49484600  0.31942100  0.18405400  1
  C  498  1  0.49875700  0.35793100  0.17172500  1
  C  499  1  0.49868000  0.35131400  0.14995000  1
  C  500  1  0.50126600  0.36738100  0.13381100  1
  C  501  1  0.50553800  0.38933500  0.13889400  1
  C  502  1  0.50648600  0.39534100  0.16068400  1
  C  503  1  0.50230100  0.37990900  0.17686400  1
  C  504  1  0.49263800  0.30446900  0.20102700  1
  C  505  1  0.49283800  0.28237500  0.19693400  1
  C  506  1  0.49562500  0.27458800  0.17577500  1
  C  507  1  0.49675800  0.28963600  0.15881400  1
  C  508  1  0.45867300  0.32432100  0.13120100  1
  C  509  1  0.45964600  0.31742000  0.10952900  1
  C  510  1  0.53767000  0.31713500  0.11015200  1
  C  511  1  0.53752600  0.32358200  0.13196700  1
  C  512  1  0.57561400  0.31460300  0.09929000  1
  C  513  1  0.61317600  0.31879400  0.10966000  1
  C  514  1  0.61388100  0.32521400  0.13132400  1
  C  515  1  0.57595900  0.32717600  0.14223800  1
  C  516  1  0.41974400  0.32853100  0.14071000  1
  C  517  1  0.38239500  0.32634100  0.12929400  1
  C  518  1  0.38419600  0.31918500  0.10788300  1
  C  519  1  0.42228800  0.31473900  0.09816300  1
  C  532  1  0.49776800  0.32776600  0.14392200  1
  C  533  1  0.49895100  0.31323700  0.09811300  1
  C  536  1  0.49586500  0.34247800  0.18968200  1
  C  539  1  0.49719600  0.25109000  0.17184500  1
  C  542  1  0.51154500  0.40592800  0.12208800  1
  C  545  1  0.65324100  0.33143200  0.14194100  1
  C  548  1  0.34247400  0.33298400  0.13906100  1
  C  551  1  0.49614600  0.16242000  0.61141800  1
  C  552  1  0.49468900  0.18395600  0.60410100  1
  C  553  1  0.49868900  0.17156700  0.56560900  1
  C  554  1  0.49851700  0.14980400  0.57226200  1
  C  555  1  0.50108800  0.13363300  0.55622800  1
  C  556  1  0.50537400  0.13867100  0.53426700  1
  C  557  1  0.50638100  0.16045000  0.52821600  1
  C  558  1  0.50229500  0.17666200  0.54362400  1
  C  559  1  0.49247800  0.20095100  0.61902900  1
  C  560  1  0.49246900  0.19688200  0.64112800  1
  C  561  1  0.49502800  0.17572600  0.64894400  1
  C  562  1  0.49621900  0.15874500  0.63392300  1
  C  563  1  0.45837700  0.13111200  0.59922400  1
  C  564  1  0.45928300  0.10943900  0.60612100  1
  C  565  1  0.53731300  0.11003600  0.60651400  1
  C  566  1  0.53722700  0.13184900  0.60005700  1
  C  567  1  0.57523500  0.09915900  0.60907700  1
  C  568  1  0.61282800  0.10951100  0.60490900  1
  C  569  1  0.61358500  0.13116900  0.59847200  1
  C  570  1  0.57568800  0.14210000  0.59648300  1
  C  571  1  0.41948900  0.14064300  0.59496400  1
  C  572  1  0.38211200  0.12924200  0.59709000  1
  C  573  1  0.38383900  0.10782800  0.60424200  1
  C  574  1  0.42189000  0.09809000  0.60874600  1
  C  587  1  0.49750400  0.14381100  0.59581500  1
  C  588  1  0.49855700  0.09801100  0.61036200  1
  C  591  1  0.49585300  0.18955100  0.58103600  1
  C  594  1  0.49637000  0.17182500  0.67245000  1
  C  597  1  0.51132400  0.12182300  0.51771500  1
  C  600  1  0.65297300  0.14176100  0.59225900  1
  C  603  1  0.34225600  0.13902800  0.59036700  1
  C  606  1  0.49661100  0.76109000  0.31209500  1
  C  607  1  0.49494200  0.73955900  0.31941200  1
  C  608  1  0.49871400  0.75195400  0.35790800  1
  C  609  1  0.49871400  0.77371600  0.35124900  1
  C  610  1  0.50126600  0.78988900  0.36728200  1
  C  611  1  0.50540200  0.78485100  0.38925100  1
  C  612  1  0.50625800  0.76307200  0.39530800  1
  C  613  1  0.50215900  0.74686000  0.37990000  1
  C  614  1  0.49273400  0.72256600  0.30448200  1
  C  615  1  0.49295200  0.72662800  0.28238200  1
  C  616  1  0.49576400  0.74777600  0.27456800  1
  C  617  1  0.49694000  0.76475700  0.28959100  1
  C  618  1  0.45887900  0.79245100  0.32419000  1
  C  619  1  0.45994500  0.81411500  0.31727000  1
  C  620  1  0.53797800  0.81340900  0.31702800  1
  C  621  1  0.53773200  0.79161000  0.32352800  1
  C  622  1  0.57597100  0.82422500  0.31450800  1
  C  623  1  0.61347700  0.81383700  0.31879000  1
  C  624  1  0.61407800  0.79219900  0.32530300  1
  C  625  1  0.57611600  0.78131700  0.32721200  1
  C  626  1  0.41990700  0.78297300  0.32836500  1
  C  627  1  0.38260400  0.79442400  0.32614800  1
  C  628  1  0.38449800  0.81583600  0.31900500  1
  C  629  1  0.42263300  0.82551700  0.31457000  1
  C  642  1  0.49791900  0.77970300  0.32769200  1
  C  643  1  0.49930800  0.82548200  0.31308700  1
  C  646  1  0.49587500  0.73397000  0.34248200  1
  C  649  1  0.49728200  0.75168200  0.25106500  1
  C  652  1  0.51138500  0.80169400  0.40580300  1
  C  655  1  0.65334900  0.78159800  0.33170300  1
  C  658  1  0.34263100  0.78468300  0.33274700  1
  C  661  1  0.49859400  0.32181600  0.76105400  1
  C  662  1  0.49676100  0.33442700  0.74212700  1
  C  663  1  0.49353100  0.36845400  0.76414000  1
  C  664  1  0.49780800  0.35642900  0.78330900  1
  C  665  1  0.49848900  0.36773000  0.80310900  1
  C  666  1  0.49375000  0.39022000  0.80432100  1
  C  667  1  0.48747700  0.40157000  0.78504900  1
  C  668  1  0.48833000  0.39092900  0.76522400  1
  C  669  1  0.49698600  0.32431900  0.72185300  1
  C  670  1  0.49869200  0.30191800  0.72013900  1
  C  671  1  0.49991200  0.28896900  0.73865400  1
  C  672  1  0.49989300  0.29912600  0.75890700  1
  C  673  1  0.53912400  0.32573200  0.79359800  1
  C  674  1  0.53974600  0.31476200  0.81352200  1
  C  675  1  0.46173100  0.31392700  0.81421500  1
  C  676  1  0.46029000  0.32501800  0.79437600  1
  C  677  1  0.42458800  0.30875800  0.82488700  1
  C  678  1  0.38627500  0.31480000  0.81633000  1
  C  679  1  0.38400200  0.32581700  0.79663600  1
  C  680  1  0.42113000  0.33054800  0.78585200  1
  C  681  1  0.57728600  0.33147300  0.78407100  1
  C  682  1  0.61549400  0.32708000  0.79397000  1
  C  683  1  0.61519300  0.31666800  0.81402900  1
  C  684  1  0.57789900  0.31034000  0.82352300  1
  C  697  1  0.49909600  0.33214300  0.78301600  1
  C  698  1  0.50133100  0.30813900  0.82460600  1
  C  701  1  0.49361400  0.35814400  0.74273300  1
  C  704  1  0.50015200  0.26525300  0.73632400  1
  C  707  1  0.49248400  0.40139000  0.82547800  1
  C  710  1  0.34381700  0.33363000  0.78815000  1
  C  713  1  0.65479600  0.33466100  0.78420500  1
  C  716  1  0.49827600  0.60160700  0.16248800  1
  C  717  1  0.49653000  0.58896000  0.18139100  1
  C  718  1  0.49333100  0.55497000  0.15931500  1
  C  719  1  0.49751300  0.56703500  0.14016700  1
  C  720  1  0.49817500  0.55577300  0.12034400  1
  C  721  1  0.49350700  0.53328200  0.11908900  1
  C  722  1  0.48737300  0.52188600  0.13834600  1
  C  723  1  0.48822200  0.53249100  0.15819100  1
  C  724  1  0.49678900  0.59902900  0.20168400  1
  C  725  1  0.49842400  0.62142700  0.20344000  1
  C  726  1  0.49958800  0.63441400  0.18494900  1
  C  727  1  0.49952700  0.62429500  0.16467700  1
  C  728  1  0.53864700  0.59778900  0.12986900  1
  C  729  1  0.53910800  0.60878500  0.10995800  1
  C  730  1  0.46108100  0.60953100  0.10938600  1
  C  731  1  0.45980900  0.59842100  0.12921900  1
  C  732  1  0.42384900  0.61466800  0.09878400  1
  C  733  1  0.38561300  0.60856400  0.10739600  1
  C  734  1  0.38351300  0.59750700  0.12707300  1
  C  735  1  0.42072600  0.59282600  0.13779500  1
  C  736  1  0.57688000  0.59205900  0.13932100  1
  C  737  1  0.61501400  0.59648800  0.12935900  1
  C  738  1  0.61455800  0.60692800  0.10931500  1
  C  739  1  0.57718700  0.61324700  0.09989600  1
  C  752  1  0.49870800  0.59132200  0.14050500  1
  C  753  1  0.50059800  0.61538300  0.09894300  1
  C  756  1  0.49345100  0.56523900  0.18074400  1
  C  759  1  0.49989900  0.65812700  0.18733200  1
  C  762  1  0.49212100  0.52216600  0.09790300  1
  C  765  1  0.34344700  0.58955500  0.13558700  1
  C  768  1  0.65440200  0.58894400  0.13905200  1
  C  771  1  0.49824300  0.76103100  0.60166100  1
  C  772  1  0.49648400  0.74211000  0.58903800  1
  C  773  1  0.49337400  0.76413900  0.55501900  1
  C  774  1  0.49756800  0.78330400  0.56706000  1
  C  775  1  0.49826100  0.80310900  0.55576900  1
  C  776  1  0.49361700  0.80433300  0.53327500  1
  C  777  1  0.48742500  0.78506400  0.52190900  1
  C  778  1  0.48826900  0.76523400  0.53253900  1
  C  779  1  0.49670900  0.72183000  0.59913200  1
  C  780  1  0.49834400  0.72010400  0.62153400  1
  C  781  1  0.49952700  0.73861300  0.63449500  1
  C  782  1  0.49948000  0.75887200  0.62435200  1
  C  783  1  0.53866200  0.79362900  0.59782200  1
  C  784  1  0.53913300  0.81356300  0.60877800  1
  C  785  1  0.46110600  0.81415800  0.60949800  1
  C  786  1  0.45982500  0.79430900  0.59841600  1
  C  787  1  0.42387700  0.82477500  0.61461400  1
  C  788  1  0.38563700  0.81615700  0.60852300  1
  C  789  1  0.38352500  0.79646700  0.59749400  1
  C  790  1  0.42073900  0.78574100  0.59281500  1
  C  791  1  0.57689500  0.78414400  0.59214700  1
  C  792  1  0.61503600  0.79409400  0.59658600  1
  C  793  1  0.61458600  0.81416600  0.60697200  1
  C  794  1  0.57721500  0.82361600  0.61324300  1
  C  807  1  0.49872000  0.78300100  0.59134700  1
  C  808  1  0.50062600  0.82460200  0.61534000  1
  C  811  1  0.49344200  0.74272700  0.56531700  1
  C  814  1  0.49987500  0.73626300  0.65820900  1
  C  817  1  0.49236100  0.82549800  0.52212000  1
  C  820  1  0.34345400  0.78794400  0.58955900  1
  C  823  1  0.65442300  0.78435400  0.58909800  1
  C  826  1  0.49854400  0.16251000  0.32185100  1
  C  827  1  0.49666900  0.18142900  0.33447100  1
  C  828  1  0.49350300  0.15939800  0.36848800  1
  C  829  1  0.49781100  0.14023800  0.35645400  1
  C  830  1  0.49851000  0.12043200  0.36774400  1
  C  831  1  0.49372200  0.11920500  0.39022900  1
  C  832  1  0.48745300  0.13847000  0.40159000  1
  C  833  1  0.48830600  0.15830100  0.39096200  1
  C  834  1  0.49683800  0.20170900  0.32437300  1
  C  835  1  0.49854400  0.20343400  0.30197300  1
  C  836  1  0.49986200  0.18492700  0.28901500  1
  C  837  1  0.49986500  0.16467000  0.29916100  1
  C  838  1  0.53909900  0.12996700  0.32573900  1
  C  839  1  0.53971500  0.11004900  0.31475600  1
  C  840  1  0.46170000  0.10935100  0.31393900  1
  C  841  1  0.46026200  0.12918300  0.32504500  1
  C  842  1  0.42455100  0.09868200  0.30877100  1
  C  843  1  0.38624400  0.10723100  0.31483300  1
  C  844  1  0.38397200  0.12691900  0.32585800  1
  C  845  1  0.42110500  0.13769300  0.33060200  1
  C  846  1  0.57726100  0.13949700  0.33146700  1
  C  847  1  0.61547000  0.12959500  0.32707300  1
  C  848  1  0.61516200  0.10954200  0.31665000  1
  C  849  1  0.57786500  0.10005300  0.31031800  1
  C  862  1  0.49907400  0.14054200  0.33216700  1
  C  863  1  0.50129400  0.09896700  0.30813500  1
  C  866  1  0.49353700  0.18081200  0.35818800  1
  C  869  1  0.50025600  0.18727500  0.26530100  1
  C  872  1  0.49238900  0.09803800  0.40138200  1
  C  875  1  0.34379500  0.13540300  0.33368500  1
  C  878  1  0.65477400  0.13935200  0.33466300  1
  C  881  1  0.02787300  0.19354800  0.22501800  1
  C  883  1  0.04550000  0.19366900  0.18778800  1
  C  884  1  0.03256700  0.21506000  0.18599400  1
  C  886  1  0.01427500  0.21522200  0.22354200  1
  C  887  1  0.99932100  0.22771800  0.24036200  1
  C  891  1  0.01209700  0.22875200  0.27702600  1
  C  892  1  0.00064900  0.21701300  0.29791300  1
  C  902  1  0.02804800  0.73000800  0.69850300  1
  C  904  1  0.04576900  0.72978000  0.73571800  1
  C  905  1  0.03265700  0.70841300  0.73748300  1
  C  907  1  0.01428300  0.70836300  0.69995700  1
  C  908  1  0.99913300  0.69594400  0.68316700  1
  C  912  1  0.01261200  0.69482500  0.64657700  1
  C  913  1  0.00142500  0.70645500  0.62559100  1
  C  923  1  0.02799900  0.69860700  0.19354500  1
  C  925  1  0.04567100  0.73582800  0.19374400  1
  C  926  1  0.03254600  0.73760600  0.21510800  1
  C  928  1  0.01418800  0.70007700  0.21518000  1
  C  929  1  0.99910900  0.68328600  0.22762000  1
  C  933  1  0.01260500  0.64669700  0.22876500  1
  C  934  1  0.00142600  0.62570200  0.21715100  1
  C  944  1  0.02796300  0.22515400  0.73002100  1
  C  946  1  0.04566400  0.18793700  0.72987300  1
  C  947  1  0.03272100  0.18615100  0.70848200  1
  C  949  1  0.01436900  0.22368900  0.70834600  1
  C  950  1  0.99937400  0.24050900  0.69586400  1
  C  954  1  0.01215700  0.27717400  0.69485400  1
  C  955  1  0.00071500  0.29805200  0.70661000  1
  C  965  1  0.53459100  0.69437100  0.72463600  1
  C  967  1  0.54756400  0.69369000  0.68688300  1
  C  968  1  0.53696200  0.71544000  0.68529100  1
  C  970  1  0.52338200  0.71642600  0.72338400  1
  C  971  1  0.51262300  0.72945300  0.74065800  1
  C  975  1  0.51822700  0.72894500  0.77793500  1
  C  976  1  0.49807600  0.71897200  0.79794300  1
  C  986  1  0.53475700  0.22920800  0.19886600  1
  C  988  1  0.54754000  0.22995800  0.23663600  1
  C  989  1  0.53720200  0.20817400  0.23823000  1
  C  991  1  0.52376400  0.20711900  0.20011500  1
  C  992  1  0.51336200  0.19403600  0.18278800  1
  C  996  1  0.51798100  0.19461000  0.14547100  1
  C  997  1  0.49751600  0.20472700  0.12562400  1
  C  1007  1  0.53407400  0.19878300  0.69437000  1
  C  1009  1  0.54770600  0.23647400  0.69374500  1
  C  1010  1  0.53697100  0.23810100  0.71547600  1
  C  1012  1  0.52265900  0.20007400  0.71639500  1
  C  1013  1  0.51131400  0.18280900  0.72932700  1
  C  1017  1  0.51801200  0.14561300  0.72916100  1
  C  1018  1  0.49885500  0.12540500  0.71906300  1
  C  1028  1  0.53466200  0.72460000  0.22918100  1
  C  1030  1  0.54756700  0.68684100  0.22989800  1
  C  1031  1  0.53695900  0.68523100  0.20814700  1
  C  1033  1  0.52341900  0.72332900  0.20713100  1
  C  1034  1  0.51266900  0.74059500  0.19408900  1
  C  1038  1  0.51829200  0.77787200  0.19456600  1
  C  1039  1  0.49818400  0.79788900  0.20454500  1
  C  1049  1  0.71270000  0.12888500  0.31048300  1
  C  1051  1  0.76750600  0.10548500  0.32141600  1
  C  1052  1  0.77472700  0.09957900  0.29997000  1
  C  1054  1  0.71905200  0.12266300  0.28880100  1
  C  1055  1  0.69690000  0.13097600  0.27172100  1
  C  1059  1  0.63072200  0.14147600  0.26042100  1
  C  1060  1  0.58516600  0.13543700  0.26351700  1
  C  1070  1  0.71240400  0.79493300  0.61318300  1
  C  1072  1  0.76779200  0.81783900  0.60199000  1
  C  1073  1  0.77500100  0.82402600  0.62335500  1
  C  1075  1  0.71882100  0.80140700  0.63478600  1
  C  1076  1  0.69653000  0.79349100  0.65197400  1
  C  1080  1  0.63049700  0.78240400  0.66309000  1
  C  1081  1  0.58480300  0.78812000  0.65992200  1
  C  1091  1  0.71241300  0.61306300  0.12858600  1
  C  1093  1  0.76781700  0.60195000  0.10565300  1
  C  1094  1  0.77501900  0.62333700  0.09953800  1
  C  1096  1  0.71878800  0.63468500  0.12216600  1
  C  1097  1  0.69650900  0.65184700  0.13014500  1
  C  1101  1  0.63047500  0.66297200  0.14122700  1
  C  1102  1  0.58478700  0.65984100  0.13548100  1
  C  1112  1  0.71272400  0.31049100  0.79468900  1
  C  1114  1  0.76751200  0.32144100  0.81809000  1
  C  1115  1  0.77471400  0.30000300  0.82402500  1
  C  1117  1  0.71908600  0.28881200  0.80092100  1
  C  1118  1  0.69694000  0.27172700  0.79261600  1
  C  1122  1  0.63074600  0.26040500  0.78216000  1
  C  1123  1  0.58520000  0.26349900  0.78821900  1
  C  1133  1  0.28466900  0.79658600  0.30904900  1
  C  1135  1  0.22668900  0.81723500  0.32112000  1
  C  1136  1  0.21951000  0.82458900  0.30011900  1
  C  1138  1  0.27808200  0.80421700  0.28785100  1
  C  1139  1  0.30110300  0.79772200  0.27038300  1
  C  1143  1  0.36845500  0.79050300  0.25853000  1
  C  1144  1  0.41249800  0.79938800  0.26028700  1
  C  1154  1  0.28447900  0.12738300  0.61430300  1
  C  1156  1  0.22694400  0.10616500  0.60267100  1
  C  1157  1  0.21997300  0.09916900  0.62381700  1
  C  1159  1  0.27818300  0.12007200  0.63563200  1
  C  1160  1  0.30128300  0.12703300  0.65291900  1
  C  1164  1  0.36882400  0.13297600  0.66509600  1
  C  1165  1  0.41226100  0.12326800  0.66356000  1
  C  1175  1  0.28451100  0.30923700  0.12724300  1
  C  1177  1  0.22666100  0.32117500  0.10643000  1
  C  1178  1  0.21969800  0.30015100  0.09907800  1
  C  1180  1  0.27815300  0.28802200  0.11961700  1
  C  1181  1  0.30148400  0.27065600  0.12612100  1
  C  1185  1  0.36872600  0.25851000  0.13301100  1
  C  1186  1  0.41265600  0.26020000  0.12396000  1
  C  1196  1  0.28460600  0.61452800  0.79647800  1
  C  1198  1  0.22679000  0.60257200  0.81731000  1
  C  1199  1  0.21967900  0.62361600  0.82456500  1
  C  1201  1  0.27813600  0.63575700  0.80403700  1
  C  1202  1  0.30117200  0.65317600  0.79743800  1
  C  1206  1  0.36859600  0.66502400  0.79039300  1
  C  1207  1  0.41248900  0.66341500  0.79950800  1
  C  1217  1  0.28518500  0.79608000  0.61439500  1
  C  1219  1  0.22633100  0.81718800  0.60454100  1
  C  1220  1  0.21932500  0.82240700  0.62616800  1
  C  1222  1  0.27894100  0.80160200  0.63628300  1
  C  1223  1  0.30241700  0.79364200  0.65309800  1
  C  1227  1  0.36839600  0.78175000  0.66302600  1
  C  1228  1  0.41419200  0.78656300  0.65897400  1
  C  1238  1  0.28547100  0.12710100  0.30894300  1
  C  1240  1  0.22601200  0.10659200  0.31908700  1
  C  1241  1  0.21903500  0.10100300  0.29755300  1
  C  1243  1  0.27919400  0.12123800  0.28714100  1
  C  1244  1  0.30285300  0.12868000  0.27018100  1
  C  1248  1  0.36825800  0.14168500  0.26057600  1
  C  1249  1  0.41425400  0.13762600  0.26482600  1
  C  1259  1  0.28546900  0.30890800  0.79647800  1
  C  1261  1  0.22601400  0.31910200  0.81695700  1
  C  1262  1  0.21904300  0.29758200  0.82260400  1
  C  1264  1  0.27924400  0.28712400  0.80242100  1
  C  1265  1  0.30287500  0.27014200  0.79500400  1
  C  1269  1  0.36824200  0.26050900  0.78197400  1
  C  1270  1  0.41424800  0.26476400  0.78599800  1
  C  1280  1  0.28516300  0.61439300  0.12749500  1
  C  1282  1  0.22628500  0.60456300  0.10639700  1
  C  1283  1  0.21931500  0.62619200  0.10117000  1
  C  1285  1  0.27891700  0.63628800  0.12199600  1
  C  1286  1  0.30239300  0.65309400  0.12997200  1
  C  1290  1  0.36837800  0.66301900  0.14186400  1
  C  1291  1  0.41417400  0.65897500  0.13704200  1
  C  1301  1  0.71153300  0.12916600  0.61497700  1
  C  1303  1  0.76991100  0.10981700  0.60141200  1
  C  1304  1  0.77704600  0.10085700  0.62177700  1
  C  1306  1  0.71812200  0.11996500  0.63554300  1
  C  1307  1  0.69480900  0.12492800  0.65342800  1
  C  1311  1  0.62740500  0.13148200  0.66584400  1
  C  1312  1  0.58285700  0.12403500  0.66201900  1
  C  1322  1  0.71183800  0.79401100  0.30884600  1
  C  1324  1  0.76959400  0.81403800  0.32213100  1
  C  1325  1  0.77662700  0.82265700  0.30160700  1
  C  1327  1  0.71825500  0.80289900  0.28813000  1
  C  1328  1  0.69508000  0.79739700  0.27032700  1
  C  1332  1  0.62766100  0.79167000  0.25765300  1
  C  1333  1  0.58340200  0.79967000  0.26126000  1
  C  1343  1  0.71177900  0.61478000  0.79420800  1
  C  1345  1  0.76991400  0.60136200  0.81384200  1
  C  1346  1  0.77684800  0.62177500  0.82273800  1
  C  1348  1  0.71816300  0.63539200  0.80333800  1
  C  1349  1  0.69463000  0.65317700  0.79825700  1
  C  1353  1  0.62738100  0.66592100  0.79202300  1
  C  1354  1  0.58291500  0.66227600  0.79969000  1
  C  1364  1  0.71169300  0.30867400  0.12929400  1
  C  1366  1  0.76979400  0.32218700  0.10969200  1
  C  1367  1  0.77686400  0.30178500  0.10079900  1
  C  1369  1  0.71816900  0.28808100  0.12013500  1
  C  1370  1  0.69490400  0.27022200  0.12522200  1
  C  1374  1  0.62747300  0.25774200  0.13158600  1
  C  1375  1  0.58303800  0.26138400  0.12386500  1
  C  1385  1  0.01675100  0.93795700  0.32150900  1
  C  1387  1  0.97114500  0.96813800  0.32429200  1
  C  1388  1  0.99426200  0.97944300  0.30891100  1
  C  1390  1  0.04108500  0.94942300  0.30639400  1
  C  1391  1  0.07747200  0.94178500  0.29759000  1
  C  1395  1  0.11138100  0.91067200  0.28593300  1
  C  1396  1  0.10266700  0.88937400  0.27437100  1
  C  1406  1  0.01715200  0.98560300  0.60231100  1
  C  1408  1  0.97171200  0.95540100  0.59904800  1
  C  1409  1  0.99440300  0.94406000  0.61456800  1
  C  1411  1  0.04105900  0.97411200  0.61759400  1
  C  1412  1  0.07710800  0.98168300  0.62678100  1
  C  1416  1  0.11173500  0.01297100  0.63745400  1
  C  1417  1  0.10347900  0.03464600  0.64838700  1
  C  1427  1  0.01692000  0.60224200  0.93799300  1
  C  1429  1  0.97151800  0.59899700  0.96821400  1
  C  1430  1  0.99426800  0.61449800  0.97955400  1
  C  1432  1  0.04086900  0.61751200  0.94947700  1
  C  1433  1  0.07693700  0.62667000  0.94189800  1
  C  1437  1  0.11151100  0.63739600  0.91061500  1
  C  1438  1  0.10322500  0.64839200  0.88897500  1
  C  1448  1  0.01689700  0.32153300  0.98562700  1
  C  1450  1  0.97120100  0.32428600  0.95548300  1
  C  1451  1  0.99430800  0.30891500  0.94416200  1
  C  1453  1  0.04120400  0.30641200  0.97415400  1
  C  1454  1  0.07760900  0.29761600  0.98177100  1
  C  1458  1  0.11155200  0.28591800  0.01286000  1
  C  1459  1  0.10286300  0.27432600  0.03414400  1
  C  1469  1  0.51592100  0.43900600  0.82074200  1
  C  1471  1  0.46968500  0.46893100  0.82332500  1
  C  1472  1  0.49217000  0.48008100  0.80758400  1
  C  1474  1  0.53961700  0.45035100  0.80528600  1
  C  1475  1  0.57589100  0.44283300  0.79637900  1
  C  1479  1  0.60997900  0.41189800  0.78426800  1
  C  1480  1  0.60145000  0.39094500  0.77207000  1
  C  1490  1  0.51588400  0.48460500  0.10260000  1
  C  1492  1  0.46961700  0.45465700  0.10051700  1
  C  1493  1  0.49253000  0.44359300  0.11615200  1
  C  1495  1  0.54001400  0.47334100  0.11793200  1
  C  1496  1  0.57656500  0.48097700  0.12647500  1
  C  1500  1  0.61000400  0.51173700  0.13940400  1
  C  1501  1  0.60103100  0.53239000  0.15202300  1
  C  1511  1  0.51591800  0.10273400  0.43898900  1
  C  1513  1  0.46973100  0.10023800  0.46894000  1
  C  1514  1  0.49227800  0.11598300  0.48005100  1
  C  1516  1  0.53966900  0.11819400  0.45029400  1
  C  1517  1  0.57584500  0.12711500  0.44263000  1
  C  1521  1  0.61007800  0.13946200  0.41185700  1
  C  1522  1  0.60155700  0.15174900  0.39095500  1
  C  1532  1  0.51594900  0.82077300  0.48453400  1
  C  1534  1  0.46978000  0.82329300  0.45457600  1
  C  1535  1  0.49230600  0.80753900  0.44346700  1
  C  1537  1  0.53970000  0.80531200  0.47322400  1
  C  1538  1  0.57596800  0.79643300  0.48078100  1
  C  1542  1  0.60998500  0.78437800  0.51176000  1
  C  1543  1  0.60141600  0.77219800  0.53272000  1
  N  882  1  0.04291900  0.18391600  0.20712400  1
  N  885  1  0.01797200  0.22480800  0.20394600  1
  N  898  1  0.03499500  0.22559200  0.16604400  1
  N  900  1  0.02785200  0.18041700  0.24344200  1
  N  903  1  0.04321400  0.73957800  0.71640400  1
  N  906  1  0.01792700  0.69872700  0.71952600  1
  N  919  1  0.03501400  0.69785000  0.75741700  1
  N  921  1  0.02805200  0.74316300  0.68010000  1
  N  924  1  0.04315400  0.71650300  0.18396400  1
  N  927  1  0.01782600  0.71965200  0.22480300  1
  N  940  1  0.03489900  0.75754700  0.22566100  1
  N  942  1  0.02805000  0.68019000  0.18040800  1
  N  945  1  0.04303900  0.20726200  0.73964100  1
  N  948  1  0.01809300  0.20410100  0.69874700  1
  N  961  1  0.03514300  0.16620600  0.69794200  1
  N  963  1  0.02788200  0.24356500  0.74317000  1
  N  966  1  0.54641000  0.68419800  0.70638400  1
  N  969  1  0.52585800  0.72574500  0.70359900  1
  N  982  1  0.53872300  0.72582800  0.66524800  1
  N  984  1  0.53634600  0.68157800  0.74328400  1
  N  987  1  0.54636900  0.23943000  0.21712400  1
  N  990  1  0.52629500  0.19782800  0.21991400  1
  N  1003  1  0.53902500  0.19779900  0.25827800  1
  N  1005  1  0.53642900  0.24199700  0.18021100  1
  N  1008  1  0.54628000  0.21698600  0.68423400  1
  N  1011  1  0.52542700  0.21984100  0.72573400  1
  N  1024  1  0.53893900  0.25813300  0.72587900  1
  N  1026  1  0.53562300  0.18013400  0.68157100  1
  N  1029  1  0.54645900  0.70635300  0.23936800  1
  N  1032  1  0.52587000  0.70353300  0.19783000  1
  N  1045  1  0.53873000  0.66517800  0.19777400  1
  N  1047  1  0.53645400  0.74326300  0.24195300  1
  N  1050  1  0.73765200  0.12004800  0.32563900  1
  N  1053  1  0.74991700  0.10837800  0.28481600  1
  N  1066  1  0.80628400  0.08537700  0.29336800  1
  N  1068  1  0.68507800  0.14499400  0.31770400  1
  N  1071  1  0.73763900  0.80339300  0.59793900  1
  N  1074  1  0.74996600  0.81557000  0.63860200  1
  N  1087  1  0.80685400  0.83811600  0.62980100  1
  N  1089  1  0.68463800  0.77881900  0.60613800  1
  N  1092  1  0.73766400  0.59784900  0.12008500  1
  N  1095  1  0.74996000  0.63855200  0.10803200  1
  N  1108  1  0.80691200  0.62984000  0.08549800  1
  N  1110  1  0.68461900  0.60595800  0.14466200  1
  N  1113  1  0.73764900  0.32565500  0.80352800  1
  N  1116  1  0.74992600  0.28483900  0.81522400  1
  N  1129  1  0.80622500  0.29341700  0.83826600  1
  N  1131  1  0.68510300  0.31769900  0.77857400  1
  N  1134  1  0.25813600  0.80335600  0.32454800  1
  N  1137  1  0.24575100  0.81777000  0.28461600  1
  N  1150  1  0.18636100  0.83807800  0.29416500  1
  N  1152  1  0.31307900  0.78035400  0.31507200  1
  N  1155  1  0.25806900  0.12016500  0.59895300  1
  N  1158  1  0.24615100  0.10639800  0.63916600  1
  N  1171  1  0.18712200  0.08560100  0.63003800  1
  N  1173  1  0.31271000  0.14359100  0.60798100  1
  N  1176  1  0.25797700  0.32468800  0.12036800  1
  N  1179  1  0.24599500  0.28470500  0.10596900  1
  N  1192  1  0.18671600  0.29411900  0.08551400  1
  N  1194  1  0.31291600  0.31532800  0.14345600  1
  N  1197  1  0.25811400  0.59906700  0.80337500  1
  N  1200  1  0.24590500  0.63907500  0.81763400  1
  N  1213  1  0.18660700  0.62965500  0.83806300  1
  N  1215  1  0.31294000  0.60842400  0.78023900  1
  N  1218  1  0.25818800  0.80403800  0.59970700  1
  N  1221  1  0.24597500  0.81435500  0.64086200  1
  N  1234  1  0.18509900  0.83432300  0.63351100  1
  N  1236  1  0.31409800  0.78098700  0.60646800  1
  N  1239  1  0.25816900  0.11961100  0.32372600  1
  N  1242  1  0.24593700  0.10862200  0.28275600  1
  N  1255  1  0.18453000  0.08921400  0.29037200  1
  N  1257  1  0.31451100  0.14221500  0.31668400  1
  N  1260  1  0.25816100  0.32371000  0.80392000  1
  N  1263  1  0.24595700  0.28276900  0.81502800  1
  N  1276  1  0.18447500  0.29042500  0.83435300  1
  N  1278  1  0.31453600  0.31661500  0.78136200  1
  N  1281  1  0.25816800  0.59971200  0.11952300  1
  N  1284  1  0.24596400  0.64087800  0.10923700  1
  N  1297  1  0.18511500  0.63354500  0.08924000  1
  N  1299  1  0.31408900  0.60645100  0.14257200  1
  N  1302  1  0.73822400  0.12374800  0.59902900  1
  N  1305  1  0.75068000  0.10634900  0.63774800  1
  N  1318  1  0.81052700  0.08720700  0.62669900  1
  N  1320  1  0.68259000  0.14548900  0.61003900  1
  N  1323  1  0.73826700  0.79992500  0.32473200  1
  N  1326  1  0.75046800  0.81670200  0.28571000  1
  N  1339  1  0.80974800  0.83647600  0.29648300  1
  N  1341  1  0.68310400  0.77766000  0.31403300  1
  N  1344  1  0.73840600  0.59887300  0.79981800  1
  N  1347  1  0.75049600  0.63769400  0.81708400  1
  N  1360  1  0.81011100  0.62679700  0.83649700  1
  N  1362  1  0.68288600  0.60973600  0.77789300  1
  N  1365  1  0.73828600  0.32461300  0.12372700  1
  N  1368  1  0.75056300  0.28583200  0.10642300  1
  N  1381  1  0.81017300  0.29681800  0.08705000  1
  N  1383  1  0.68287300  0.31365900  0.14566400  1
  N  1386  1  0.98325600  0.94810800  0.32983800  1
  N  1389  1  0.02790400  0.96940200  0.30076500  1
  N  1402  1  0.98287100  0.99969300  0.30051000  1
  N  1404  1  0.02452000  0.91698800  0.32945300  1
  N  1407  1  0.98394900  0.97545400  0.59366600  1
  N  1410  1  0.02776400  0.95409800  0.62301900  1
  N  1423  1  0.98291800  0.92374600  0.62277200  1
  N  1425  1  0.02511500  0.00657200  0.59442600  1
  N  1428  1  0.98370900  0.59361600  0.94815100  1
  N  1431  1  0.02762000  0.62293700  0.96949800  1
  N  1444  1  0.98280700  0.62271900  0.99986300  1
  N  1446  1  0.02482500  0.59436800  0.91701500  1
  N  1449  1  0.98337300  0.32985400  0.97549700  1
  N  1452  1  0.02797900  0.30077600  0.95418500  1
  N  1465  1  0.98289300  0.30051300  0.92391600  1
  N  1467  1  0.02472900  0.32948700  0.00658800  1
  N  1470  1  0.48240600  0.44908600  0.82914000  1
  N  1473  1  0.52586100  0.47012900  0.79939700  1
  N  1486  1  0.48056400  0.50024600  0.79910800  1
  N  1488  1  0.52437700  0.41822800  0.82894000  1
  N  1491  1  0.48214400  0.47448000  0.09451100  1
  N  1494  1  0.52644000  0.45359300  0.12404200  1
  N  1507  1  0.48105700  0.42350200  0.12485500  1
  N  1509  1  0.52406000  0.50537900  0.09431200  1
  N  1512  1  0.48239900  0.09437600  0.44909800  1
  N  1515  1  0.52594700  0.12414700  0.47006100  1
  N  1528  1  0.48070000  0.12452700  0.50019200  1
  N  1530  1  0.52429400  0.09453300  0.41820300  1
  N  1533  1  0.48243900  0.82913900  0.47442400  1
  N  1536  1  0.52599400  0.79938500  0.45344900  1
  N  1549  1  0.48073300  0.79901900  0.42331600  1
  N  1551  1  0.52430900  0.82898400  0.50531600  1
  O  889  1  0.97698100  0.24285700  0.23576000  1
  O  890  1  0.99090500  0.21877000  0.25934200  1
  O  910  1  0.97577700  0.68119800  0.68768200  1
  O  911  1  0.99097300  0.70481200  0.66411000  1
  O  931  1  0.97577700  0.68779900  0.24237700  1
  O  932  1  0.99095800  0.66422300  0.21876800  1
  O  952  1  0.97701100  0.23590600  0.68073500  1
  O  953  1  0.99095800  0.25948500  0.70482200  1
  O  973  1  0.49689400  0.74686800  0.73666300  1
  O  974  1  0.49860900  0.72069000  0.75887000  1
  O  994  1  0.49899100  0.17631800  0.18682500  1
  O  995  1  0.49892000  0.20284800  0.16469800  1
  O  1015  1  0.49484300  0.18705000  0.74650200  1
  O  1016  1  0.49809500  0.16445000  0.72060900  1
  O  1036  1  0.49693100  0.73658800  0.17668100  1
  O  1037  1  0.49867700  0.75881600  0.20284200  1
  O  1057  1  0.71392500  0.13086400  0.25417800  1
  O  1058  1  0.65644000  0.12655300  0.27200500  1
  O  1078  1  0.71284100  0.79417300  0.66969500  1
  O  1079  1  0.65589500  0.79754300  0.65158800  1
  O  1099  1  0.71284400  0.66956500  0.12954000  1
  O  1100  1  0.65587700  0.65148800  0.12607800  1
  O  1120  1  0.71398100  0.25418900  0.79272400  1
  O  1121  1  0.65648700  0.27200500  0.79706100  1
  O  1141  1  0.28400500  0.79785100  0.25285000  1
  O  1142  1  0.34063600  0.80404400  0.27048100  1
  O  1162  1  0.28345500  0.12791800  0.67022200  1
  O  1163  1  0.34028500  0.11992600  0.65306600  1
  O  1183  1  0.28382800  0.25327200  0.12654200  1
  O  1184  1  0.34085800  0.27060800  0.11963700  1
  O  1204  1  0.28400600  0.67069000  0.79734800  1
  O  1205  1  0.34060500  0.65317300  0.80392300  1
  O  1225  1  0.28715500  0.79443100  0.67106700  1
  O  1226  1  0.34314300  0.79715000  0.65177600  1
  O  1246  1  0.28862200  0.12684300  0.25205400  1
  O  1247  1  0.34377400  0.12589700  0.27175700  1
  O  1267  1  0.28865300  0.25202000  0.79690400  1
  O  1268  1  0.34380500  0.27172300  0.79775500  1
  O  1288  1  0.28712600  0.67106200  0.12920500  1
  O  1289  1  0.34311800  0.65177900  0.12645700  1
  O  1309  1  0.71132600  0.12290300  0.67099500  1
  O  1310  1  0.65494700  0.11926500  0.65238100  1
  O  1330  1  0.71238600  0.79858000  0.25289700  1
  O  1331  1  0.65553500  0.80360200  0.27118000  1
  O  1351  1  0.71179800  0.67064600  0.79964000  1
  O  1352  1  0.65490700  0.65233100  0.80409900  1
  O  1372  1  0.71156300  0.25266400  0.12343000  1
  O  1373  1  0.65512500  0.27115300  0.11938300  1
  O  1393  1  0.10188000  0.95519600  0.29087200  1
  O  1394  1  0.07445100  0.92356500  0.28627700  1
  O  1414  1  0.10080700  0.96842400  0.63444300  1
  O  1415  1  0.07454500  0.00027300  0.63753400  1
  O  1435  1  0.10070300  0.63427800  0.95515600  1
  O  1436  1  0.07435400  0.63747100  0.92333500  1
  O  1456  1  0.10200900  0.29092100  0.96834700  1
  O  1457  1  0.07460900  0.28627900  0.99997800  1
  O  1477  1  0.60024600  0.45621600  0.78953300  1
  O  1478  1  0.57300900  0.42473900  0.78483600  1
  O  1498  1  0.60147700  0.46749600  0.13251700  1
  O  1499  1  0.57324300  0.49875800  0.13843900  1
  O  1519  1  0.60046100  0.13347300  0.45613300  1
  O  1520  1  0.57304000  0.13875700  0.42462900  1
  O  1540  1  0.60037500  0.78958500  0.46742500  1
  O  1541  1  0.57305800  0.78490200  0.49888400  1
