# generated using pymatgen
data_H3C5
_symmetry_space_group_name_H-M   'P 1'
_cell_length_a   47.94700000
_cell_length_b   47.95030000
_cell_length_c   47.94540000
_cell_angle_alpha   90.00000000
_cell_angle_beta   89.99810000
_cell_angle_gamma   89.99610000
_symmetry_Int_Tables_number   1
_chemical_formula_structural   H3C5
_chemical_formula_sum   'H432 C720'
_cell_volume   110229.97593317
_cell_formula_units_Z   144
loop_
 _symmetry_equiv_pos_site_id
 _symmetry_equiv_pos_as_xyz
  1  'x, y, z'
loop_
 _atom_site_type_symbol
 _atom_site_label
 _atom_site_symmetry_multiplicity
 _atom_site_fract_x
 _atom_site_fract_y
 _atom_site_fract_z
 _atom_site_occupancy
  H  25  1  0.52860100  0.12175000  0.30417900  1
  H  26  1  0.56357600  0.09795600  0.33067400  1
  H  27  1  0.51558000  0.17728300  0.37113200  1
  H  28  1  0.54981900  0.15325500  0.39789400  1
  H  29  1  0.60322400  0.15230000  0.45030600  1
  H  30  1  0.62970200  0.17602300  0.48482600  1
  H  31  1  0.67166700  0.09919000  0.43417300  1
  H  32  1  0.69790300  0.12263300  0.46961300  1
  H  33  1  0.60759000  0.02743600  0.44569800  1
  H  34  1  0.60798400  0.97783700  0.44582100  1
  H  35  1  0.58599100  0.97728400  0.36070800  1
  H  36  1  0.58741000  0.02682000  0.35991800  1
  H  37  1  0.56474900  0.06812200  0.37388300  1
  H  38  1  0.60026800  0.14356000  0.39983800  1
  H  39  1  0.63041500  0.06812800  0.43195800  1
  H  64  1  0.41202400  0.79421500  0.30348500  1
  H  65  1  0.37698300  0.81787700  0.33002700  1
  H  66  1  0.42489300  0.73834700  0.37018500  1
  H  67  1  0.39062500  0.76225600  0.39701000  1
  H  68  1  0.33757300  0.76305400  0.44944000  1
  H  69  1  0.31125300  0.73904300  0.48387700  1
  H  70  1  0.26887900  0.81595500  0.43367600  1
  H  71  1  0.24279700  0.79221800  0.46903300  1
  H  72  1  0.33286800  0.88789200  0.44531500  1
  H  73  1  0.33246100  0.93749500  0.44559200  1
  H  74  1  0.35435000  0.93831800  0.36045100  1
  H  75  1  0.35293800  0.88878900  0.35950700  1
  H  76  1  0.37569400  0.84750500  0.37333500  1
  H  77  1  0.34024200  0.77193000  0.39896800  1
  H  78  1  0.31008900  0.84718700  0.43149100  1
  H  103  1  0.52994800  0.79273600  0.75780100  1
  H  104  1  0.56539400  0.81628300  0.73164200  1
  H  105  1  0.51510900  0.73926100  0.68957600  1
  H  106  1  0.54961800  0.76308700  0.66318300  1
  H  107  1  0.60219700  0.76181400  0.61029400  1
  H  108  1  0.62899800  0.73762900  0.57623200  1
  H  109  1  0.66926200  0.81739400  0.62362800  1
  H  110  1  0.69577200  0.79345500  0.58876900  1
  H  111  1  0.64001000  0.88850100  0.64734200  1
  H  112  1  0.63925500  0.93802900  0.64580900  1
  H  113  1  0.55413800  0.93759300  0.66777000  1
  H  114  1  0.55421900  0.88799600  0.66747600  1
  H  115  1  0.56781900  0.84730900  0.69032000  1
  H  116  1  0.60010100  0.77181200  0.66054700  1
  H  117  1  0.62610600  0.84713600  0.62482900  1
  H  142  1  0.41164000  0.12114000  0.75593000  1
  H  143  1  0.37672100  0.09717400  0.72950400  1
  H  144  1  0.42357200  0.17730400  0.68932100  1
  H  145  1  0.38949200  0.15309100  0.66260100  1
  H  146  1  0.33647000  0.15212900  0.61052300  1
  H  147  1  0.31003000  0.17603500  0.57613000  1
  H  148  1  0.26832200  0.09836100  0.62569000  1
  H  149  1  0.24215000  0.12196100  0.59030400  1
  H  150  1  0.33251600  0.02694800  0.61435700  1
  H  151  1  0.33224100  0.97734900  0.61412700  1
  H  152  1  0.35435600  0.97665700  0.69920300  1
  H  153  1  0.35281500  0.02618400  0.70010800  1
  H  154  1  0.37530600  0.06761200  0.68624500  1
  H  155  1  0.33929300  0.14296800  0.66074900  1
  H  156  1  0.30965100  0.06755800  0.62815600  1
  H  181  1  0.80617000  0.23152000  0.47123200  1
  H  182  1  0.82981700  0.25816400  0.43626300  1
  H  183  1  0.75052100  0.29831500  0.48457400  1
  H  184  1  0.77440700  0.32522500  0.45036400  1
  H  185  1  0.77533100  0.37797500  0.39720800  1
  H  186  1  0.75145100  0.41250000  0.37083800  1
  H  187  1  0.82822200  0.36198200  0.32856300  1
  H  188  1  0.80462300  0.39739600  0.30242300  1
  H  189  1  0.90023600  0.37330000  0.39250200  1
  H  190  1  0.94984200  0.37339600  0.39215400  1
  H  191  1  0.95033900  0.28825800  0.41401200  1
  H  192  1  0.90080900  0.28749000  0.41253400  1
  H  193  1  0.85955800  0.30138800  0.43522400  1
  H  194  1  0.78405700  0.32746200  0.39992500  1
  H  195  1  0.85943900  0.35970900  0.36977900  1
  H  220  1  0.13452100  0.23174700  0.58874000  1
  H  221  1  0.11075800  0.25829900  0.62369700  1
  H  222  1  0.18987600  0.29876000  0.57536000  1
  H  223  1  0.16589000  0.32557700  0.60958300  1
  H  224  1  0.16484600  0.37818400  0.66288300  1
  H  225  1  0.18853600  0.41281200  0.68925900  1
  H  226  1  0.11193500  0.36199600  0.73146900  1
  H  227  1  0.13533500  0.39753300  0.75762200  1
  H  228  1  0.04007200  0.37333500  0.66734000  1
  H  229  1  0.99046500  0.37339600  0.66768400  1
  H  230  1  0.99004700  0.28822800  0.64592200  1
  H  231  1  0.03958500  0.28750100  0.64739900  1
  H  232  1  0.08084600  0.30148900  0.62468100  1
  H  233  1  0.15627000  0.32765300  0.66008400  1
  H  234  1  0.08079200  0.35971000  0.69021800  1
  H  259  1  0.13486300  0.68518100  0.46912500  1
  H  260  1  0.11117300  0.65905700  0.43375800  1
  H  261  1  0.18853400  0.61702700  0.48356600  1
  H  262  1  0.16455700  0.59065600  0.44915000  1
  H  263  1  0.16572800  0.53795300  0.39673000  1
  H  264  1  0.18989600  0.50390000  0.36994800  1
  H  265  1  0.10957500  0.55064500  0.33000400  1
  H  266  1  0.13347300  0.51571800  0.30352400  1
  H  267  1  0.03868500  0.57467700  0.35946500  1
  H  268  1  0.98915800  0.57319800  0.36042200  1
  H  269  1  0.98996000  0.59529000  0.44550400  1
  H  270  1  0.03955800  0.59494600  0.44522300  1
  H  271  1  0.08018700  0.61774200  0.43142200  1
  H  272  1  0.15554400  0.58803100  0.39876600  1
  H  273  1  0.08012200  0.55216100  0.37324900  1
  H  298  1  0.80511300  0.68529600  0.59034200  1
  H  299  1  0.82879800  0.65920500  0.62574300  1
  H  300  1  0.75142300  0.61712300  0.57599700  1
  H  301  1  0.77541700  0.59078700  0.61042900  1
  H  302  1  0.77453500  0.53786000  0.66269100  1
  H  303  1  0.75046400  0.50371800  0.68947600  1
  H  304  1  0.83037500  0.55102000  0.72958800  1
  H  305  1  0.80655400  0.51605000  0.75608500  1
  H  306  1  0.90134000  0.57497100  0.70007100  1
  H  307  1  0.95086900  0.57350100  0.69910300  1
  H  308  1  0.95003600  0.59546000  0.61398600  1
  H  309  1  0.90043300  0.59510800  0.61428200  1
  H  310  1  0.85979600  0.61793300  0.62810200  1
  H  311  1  0.78447400  0.58811500  0.66075700  1
  H  312  1  0.85994600  0.55236100  0.68628600  1
  H  337  1  0.69614600  0.39913200  0.19348200  1
  H  338  1  0.66972800  0.36416400  0.16959500  1
  H  339  1  0.62957200  0.41110700  0.24970100  1
  H  340  1  0.60285600  0.37695900  0.22555200  1
  H  341  1  0.55076500  0.32398700  0.22463500  1
  H  342  1  0.51637000  0.29758100  0.24858100  1
  H  343  1  0.56588600  0.25579200  0.17090900  1
  H  344  1  0.53050400  0.22965900  0.19455300  1
  H  345  1  0.55457600  0.31990700  0.09942300  1
  H  346  1  0.55434400  0.31962800  0.04981900  1
  H  347  1  0.63941100  0.34176600  0.04912100  1
  H  348  1  0.64031600  0.34022700  0.09865100  1
  H  349  1  0.62646600  0.36272400  0.14005700  1
  H  350  1  0.60099400  0.32677600  0.21545500  1
  H  351  1  0.56836500  0.29708700  0.14007200  1
  H  376  1  0.69790200  0.51756100  0.86476200  1
  H  377  1  0.67178700  0.55307000  0.88826200  1
  H  378  1  0.62956200  0.50253500  0.81147000  1
  H  379  1  0.60321800  0.53714400  0.83525200  1
  H  380  1  0.55033200  0.58978100  0.83399600  1
  H  381  1  0.51618100  0.61656500  0.80991700  1
  H  382  1  0.56383100  0.65687200  0.88951300  1
  H  383  1  0.52889300  0.68336500  0.86567800  1
  H  384  1  0.58759600  0.62760900  0.96060000  1
  H  385  1  0.58606200  0.62683800  0.01013500  1
  H  386  1  0.60788400  0.54168600  0.00965800  1
  H  387  1  0.60758900  0.54178800  0.96005200  1
  H  388  1  0.63047600  0.55541100  0.91937400  1
  H  389  1  0.60063500  0.58768600  0.84389100  1
  H  390  1  0.56499800  0.61370900  0.91926000  1
  H  415  1  0.24382600  0.39948000  0.86629900  1
  H  416  1  0.27039900  0.36449200  0.88999300  1
  H  417  1  0.31046400  0.41231100  0.81036700  1
  H  418  1  0.33732000  0.37809900  0.83429400  1
  H  419  1  0.38965100  0.32491300  0.83497200  1
  H  420  1  0.42404400  0.29855700  0.81094900  1
  H  421  1  0.37415900  0.25641000  0.88819100  1
  H  422  1  0.40950300  0.23031000  0.86446000  1
  H  423  1  0.38561500  0.32026500  0.96005600  1
  H  424  1  0.38585300  0.31985000  0.00966000  1
  H  425  1  0.30076300  0.34191200  0.01042600  1
  H  426  1  0.29985400  0.34050900  0.96089700  1
  H  427  1  0.31369300  0.36319600  0.91959500  1
  H  428  1  0.33932400  0.32771800  0.84403000  1
  H  429  1  0.37184100  0.29759300  0.91930100  1
  H  454  1  0.24428900  0.51587100  0.19434300  1
  H  455  1  0.27076900  0.55086600  0.17056800  1
  H  456  1  0.31112900  0.50303000  0.25002800  1
  H  457  1  0.33788900  0.53725300  0.22601900  1
  H  458  1  0.39046100  0.59058800  0.22489700  1
  H  459  1  0.42503400  0.61708000  0.24854300  1
  H  460  1  0.37419900  0.65901500  0.17180900  1
  H  461  1  0.40966900  0.68526200  0.19517400  1
  H  462  1  0.38572300  0.59491800  0.10005600  1
  H  463  1  0.38580800  0.59533100  0.05045000  1
  H  464  1  0.30069500  0.57335200  0.04995500  1
  H  465  1  0.29994100  0.57475500  0.09949600  1
  H  466  1  0.31393200  0.55209500  0.14080500  1
  H  467  1  0.33994600  0.58763900  0.21622300  1
  H  468  1  0.37201000  0.61774500  0.14075000  1
  H  493  1  0.80657900  0.39881800  0.75618300  1
  H  494  1  0.83042600  0.36384900  0.72971300  1
  H  495  1  0.75062100  0.41122200  0.68947600  1
  H  496  1  0.77471500  0.37707900  0.66271600  1
  H  497  1  0.77582200  0.32425700  0.61032700  1
  H  498  1  0.75194500  0.29794800  0.57578400  1
  H  499  1  0.82908900  0.25578500  0.62583200  1
  H  500  1  0.80551100  0.22971600  0.59034600  1
  H  501  1  0.90073300  0.32009000  0.61448000  1
  H  502  1  0.95034300  0.31988000  0.61428000  1
  H  503  1  0.95094500  0.34164300  0.69945400  1
  H  504  1  0.90141700  0.34002800  0.70032100  1
  H  505  1  0.86005500  0.36263700  0.68644900  1
  H  506  1  0.78467800  0.32680700  0.66075100  1
  H  507  1  0.86011100  0.29712100  0.62820200  1
  H  532  1  0.13550600  0.51841600  0.75723400  1
  H  533  1  0.11198300  0.55381900  0.73101000  1
  H  534  1  0.18846700  0.50284300  0.68876800  1
  H  535  1  0.16468900  0.53737200  0.66232600  1
  H  536  1  0.16595900  0.59019900  0.60926600  1
  H  537  1  0.18993900  0.61702900  0.57506400  1
  H  538  1  0.11031400  0.65717000  0.62283300  1
  H  539  1  0.13403500  0.68371900  0.58785000  1
  H  540  1  0.03931200  0.62789300  0.64675000  1
  H  541  1  0.98977600  0.62706500  0.64538000  1
  H  542  1  0.99042100  0.54197400  0.66742300  1
  H  543  1  0.04002000  0.54213100  0.66697300  1
  H  544  1  0.08072300  0.55586300  0.68972600  1
  H  545  1  0.15612200  0.58801600  0.65955800  1
  H  546  1  0.08064200  0.61399600  0.62411200  1
  H  571  1  0.13399200  0.39884100  0.30387000  1
  H  572  1  0.11004400  0.36395000  0.33035700  1
  H  573  1  0.18996400  0.41115400  0.37059800  1
  H  574  1  0.16576000  0.37706600  0.39736800  1
  H  575  1  0.16470100  0.32412400  0.44959400  1
  H  576  1  0.18860100  0.29776400  0.48403800  1
  H  577  1  0.11115900  0.25583000  0.43429600  1
  H  578  1  0.13475400  0.22972000  0.46974200  1
  H  579  1  0.03960400  0.32003200  0.44546500  1
  H  580  1  0.99000000  0.31980500  0.44561300  1
  H  581  1  0.98947100  0.34182800  0.36051000  1
  H  582  1  0.03899800  0.34023000  0.35968600  1
  H  583  1  0.08037900  0.36272400  0.37359100  1
  H  584  1  0.15571900  0.32681500  0.39928300  1
  H  585  1  0.08026200  0.29715100  0.43177600  1
  H  610  1  0.80457500  0.51795200  0.30242700  1
  H  611  1  0.82808900  0.55338500  0.32861300  1
  H  612  1  0.75134900  0.50273500  0.37077800  1
  H  613  1  0.77514700  0.53727200  0.39719100  1
  H  614  1  0.77402500  0.58994300  0.45031600  1
  H  615  1  0.74999100  0.61678500  0.48446500  1
  H  616  1  0.82963400  0.65693400  0.43674700  1
  H  617  1  0.80584200  0.68349200  0.47168200  1
  H  618  1  0.90067300  0.62764600  0.41281100  1
  H  619  1  0.95021000  0.62682100  0.41415400  1
  H  620  1  0.94957700  0.54175000  0.39205400  1
  H  621  1  0.89998000  0.54189900  0.39253200  1
  H  622  1  0.85924800  0.55560400  0.36984300  1
  H  623  1  0.78385900  0.58778800  0.40000700  1
  H  624  1  0.85933800  0.61376000  0.43543700  1
  H  649  1  0.69774700  0.12262600  0.59017500  1
  H  650  1  0.67160200  0.09908900  0.62562400  1
  H  651  1  0.62940700  0.17590300  0.57510000  1
  H  652  1  0.60303700  0.15209800  0.60967400  1
  H  653  1  0.55040900  0.15361600  0.66249700  1
  H  654  1  0.51633900  0.17776100  0.68931100  1
  H  655  1  0.56344400  0.09772100  0.72936900  1
  H  656  1  0.52853600  0.12160500  0.75587000  1
  H  657  1  0.58728400  0.02675500  0.70012300  1
  H  658  1  0.58573200  0.97722800  0.69934900  1
  H  659  1  0.60769000  0.97769100  0.61423000  1
  H  660  1  0.60741700  0.02729100  0.61433000  1
  H  661  1  0.63025200  0.06797500  0.62793500  1
  H  662  1  0.60050800  0.14346000  0.66026300  1
  H  663  1  0.56477800  0.06812700  0.68623900  1
  H  688  1  0.69630100  0.79398500  0.47177800  1
  H  689  1  0.66991900  0.81785500  0.43676100  1
  H  690  1  0.62979400  0.73766200  0.48355800  1
  H  691  1  0.60310300  0.76180300  0.44938600  1
  H  692  1  0.55077400  0.76301900  0.39658200  1
  H  693  1  0.51629500  0.73917800  0.37017500  1
  H  694  1  0.56629400  0.81646000  0.32825200  1
  H  695  1  0.53087800  0.79290100  0.30210000  1
  H  696  1  0.55477500  0.88797500  0.39254200  1
  H  697  1  0.55453500  0.93757600  0.39226900  1
  H  698  1  0.63964300  0.93827100  0.41426900  1
  H  699  1  0.64055200  0.88874700  0.41272300  1
  H  700  1  0.62668600  0.84734000  0.43526400  1
  H  701  1  0.60118600  0.77197400  0.39926900  1
  H  702  1  0.56859500  0.84738200  0.36961000  1
  H  727  1  0.24408800  0.79350900  0.58798100  1
  H  728  1  0.27063700  0.81720400  0.62297700  1
  H  729  1  0.31071400  0.73755000  0.57524600  1
  H  730  1  0.33755500  0.76149000  0.60944300  1
  H  731  1  0.39027400  0.76253700  0.66258000  1
  H  732  1  0.42475900  0.73871000  0.68903800  1
  H  733  1  0.37418700  0.81554300  0.73110800  1
  H  734  1  0.40955200  0.79198700  0.75732300  1
  H  735  1  0.38569100  0.88745000  0.66718100  1
  H  736  1  0.38582900  0.93704800  0.66760100  1
  H  737  1  0.30073800  0.93764400  0.64554200  1
  H  738  1  0.29992900  0.88811500  0.64694400  1
  H  739  1  0.31382600  0.84681700  0.62430400  1
  H  740  1  0.33975100  0.77132700  0.65973800  1
  H  741  1  0.37200700  0.84669200  0.68987400  1
  H  766  1  0.24395600  0.12146600  0.47162400  1
  H  767  1  0.27049100  0.09772300  0.43663400  1
  H  768  1  0.31076300  0.17717800  0.48457600  1
  H  769  1  0.33756600  0.15320600  0.45033900  1
  H  770  1  0.38977000  0.15250300  0.39696400  1
  H  771  1  0.42423800  0.17636600  0.37058000  1
  H  772  1  0.37417500  0.09919400  0.32855100  1
  H  773  1  0.40961300  0.12275400  0.30242500  1
  H  774  1  0.38566900  0.02749800  0.39257100  1
  H  775  1  0.38588600  0.97789600  0.39215800  1
  H  776  1  0.30076900  0.97717200  0.41412500  1
  H  777  1  0.29988200  0.02670500  0.41272100  1
  H  778  1  0.31378200  0.06801300  0.43544100  1
  H  779  1  0.33945600  0.14351500  0.39986500  1
  H  780  1  0.37185100  0.06817900  0.36976400  1
  H  805  1  0.52825300  0.23164300  0.86572000  1
  H  806  1  0.56323400  0.25814900  0.88950900  1
  H  807  1  0.51553200  0.29842100  0.80991200  1
  H  808  1  0.54972300  0.32520100  0.83394600  1
  H  809  1  0.60290500  0.37778900  0.83504100  1
  H  810  1  0.62937400  0.41229400  0.81124500  1
  H  811  1  0.67140600  0.36165900  0.88807200  1
  H  812  1  0.69764200  0.39705300  0.86456200  1
  H  813  1  0.60742700  0.37312600  0.95993900  1
  H  814  1  0.60781900  0.37323200  0.00954100  1
  H  815  1  0.58574200  0.28815600  0.01007300  1
  H  816  1  0.58716700  0.28737400  0.96053800  1
  H  817  1  0.56454500  0.30132300  0.91922800  1
  H  818  1  0.60003900  0.32728900  0.84377200  1
  H  819  1  0.63015900  0.35944700  0.91919500  1
  H  844  1  0.41192800  0.23138200  0.19366200  1
  H  845  1  0.37697100  0.25792800  0.16987800  1
  H  846  1  0.42474800  0.29814000  0.24946900  1
  H  847  1  0.39056400  0.32495900  0.22544800  1
  H  848  1  0.33736100  0.37720600  0.22470300  1
  H  849  1  0.31100200  0.41162100  0.24869300  1
  H  850  1  0.26885800  0.36165500  0.17150000  1
  H  851  1  0.24273900  0.39702900  0.19518500  1
  H  852  1  0.33278100  0.37310300  0.09967800  1
  H  853  1  0.33238000  0.37333400  0.05007400  1
  H  854  1  0.35444200  0.28824900  0.04932800  1
  H  855  1  0.35302800  0.28734800  0.09886300  1
  H  856  1  0.37569800  0.30121700  0.14017600  1
  H  857  1  0.34017700  0.32688100  0.21571400  1
  H  858  1  0.31005700  0.35932300  0.14040700  1
  H  883  1  0.53046500  0.68537500  0.19473400  1
  H  884  1  0.56593200  0.65920400  0.17121200  1
  H  885  1  0.51514400  0.61693600  0.24782500  1
  H  886  1  0.54972500  0.59055700  0.22403800  1
  H  887  1  0.60250400  0.53774800  0.22545600  1
  H  888  1  0.62929700  0.50365100  0.24958200  1
  H  889  1  0.66959800  0.55122700  0.16992800  1
  H  890  1  0.69611200  0.51631200  0.19379900  1
  H  891  1  0.64033500  0.57493400  0.09881900  1
  H  892  1  0.63955900  0.57337200  0.04928500  1
  H  893  1  0.55439800  0.59518200  0.04976000  1
  H  894  1  0.55450500  0.59491500  0.09936600  1
  H  895  1  0.56813300  0.61783800  0.14002000  1
  H  896  1  0.60036600  0.58801700  0.21552800  1
  H  897  1  0.62642900  0.55235800  0.14018000  1
  H  922  1  0.41156800  0.68383100  0.86655200  1
  H  923  1  0.37657000  0.65740200  0.89041400  1
  H  924  1  0.42374500  0.61715500  0.81048400  1
  H  925  1  0.38958400  0.59044300  0.83461300  1
  H  926  1  0.33668000  0.53815900  0.83566900  1
  H  927  1  0.31029700  0.50371000  0.81177100  1
  H  928  1  0.26827100  0.55372700  0.88900700  1
  H  929  1  0.24213100  0.51831100  0.86539600  1
  H  930  1  0.33254800  0.54216900  0.96058800  1
  H  931  1  0.33228800  0.54189400  0.01019300  1
  H  932  1  0.35420100  0.62701800  0.01094700  1
  H  933  1  0.35264500  0.62796100  0.96141600  1
  H  934  1  0.37522600  0.61412600  0.92001700  1
  H  935  1  0.33935500  0.58857100  0.84460200  1
  H  936  1  0.30961000  0.55599800  0.91999400  1
  H  943  1  0.70712900  0.18935600  0.57425700  1
  H  944  1  0.70787600  0.18891500  0.48585000  1
  H  945  1  0.65308500  0.13796300  0.52987900  1
  H  952  1  0.23340600  0.72557400  0.57334800  1
  H  953  1  0.23326300  0.72572700  0.48493300  1
  H  954  1  0.28782100  0.77675100  0.52911000  1
  H  961  1  0.70715200  0.72601100  0.48602100  1
  H  962  1  0.70584800  0.72497900  0.57442600  1
  H  963  1  0.65222100  0.77683600  0.53004800  1
  H  970  1  0.23423200  0.19012900  0.48604400  1
  H  971  1  0.23191600  0.18853500  0.57441300  1
  H  972  1  0.28718700  0.13781500  0.53068200  1
  H  979  1  0.73802000  0.50180600  0.29287700  1
  H  980  1  0.73800900  0.41340600  0.29296600  1
  H  981  1  0.78935600  0.45765500  0.34718600  1
  H  988  1  0.20196200  0.50224300  0.76668000  1
  H  989  1  0.20135800  0.41384700  0.76759800  1
  H  990  1  0.15069100  0.45785300  0.71252700  1
  H  997  1  0.20261400  0.41307600  0.29393000  1
  H  998  1  0.20179700  0.50148000  0.29284500  1
  H  999  1  0.15056500  0.45744400  0.34738200  1
  H  1006  1  0.73866100  0.41321900  0.76676800  1
  H  1007  1  0.73836700  0.50163500  0.76657800  1
  H  1008  1  0.78968200  0.45748200  0.71223500  1
  H  1015  1  0.42619800  0.22146200  0.26219600  1
  H  1016  1  0.51458900  0.21966500  0.26134700  1
  H  1017  1  0.47097200  0.27463300  0.21021800  1
  H  1024  1  0.42580800  0.69475600  0.79893700  1
  H  1025  1  0.51421000  0.69359700  0.79746300  1
  H  1026  1  0.47015600  0.63961300  0.84923000  1
  H  1033  1  0.51385600  0.22132500  0.79759600  1
  H  1034  1  0.42544600  0.22073800  0.79764200  1
  H  1035  1  0.46930700  0.27524000  0.84902400  1
  H  1042  1  0.51454500  0.69499400  0.26099500  1
  H  1043  1  0.42613700  0.69505500  0.26162200  1
  H  1044  1  0.46996400  0.64050300  0.21024900  1
  H  1051  1  0.73816600  0.22120900  0.48598800  1
  H  1052  1  0.73927000  0.21972900  0.57438600  1
  H  1053  1  0.78975000  0.27501400  0.53046300  1
  H  1060  1  0.20165300  0.69482600  0.48489700  1
  H  1061  1  0.20231300  0.69401700  0.57330800  1
  H  1062  1  0.15053400  0.64026200  0.52897000  1
  H  1069  1  0.20276800  0.22189000  0.57409900  1
  H  1070  1  0.20097300  0.21937700  0.48573800  1
  H  1071  1  0.15073300  0.27510500  0.52942900  1
  H  1078  1  0.73851900  0.69512300  0.57453400  1
  H  1079  1  0.73721300  0.69346500  0.48614600  1
  H  1080  1  0.78942100  0.64021900  0.53058700  1
  H  1087  1  0.42563200  0.18951000  0.76630700  1
  H  1088  1  0.51405100  0.18996700  0.76632100  1
  H  1089  1  0.47010200  0.13826200  0.71217000  1
  H  1096  1  0.42640300  0.72633300  0.29293500  1
  H  1097  1  0.51481700  0.72623900  0.29227800  1
  H  1098  1  0.47106900  0.77739700  0.34708400  1
  H  1105  1  0.51410700  0.72630200  0.76763500  1
  H  1106  1  0.42572000  0.72487300  0.76648800  1
  H  1107  1  0.46977400  0.77707600  0.71292900  1
  H  1114  1  0.51422100  0.18981400  0.29404100  1
  H  1115  1  0.42582900  0.18897000  0.29225500  1
  H  1116  1  0.46943200  0.13837500  0.34772000  1
  H  1123  1  0.70747800  0.50157900  0.79825500  1
  H  1124  1  0.70714000  0.41317900  0.79783000  1
  H  1125  1  0.65306200  0.45734300  0.84940300  1
  H  1132  1  0.23419400  0.50133800  0.26263800  1
  H  1133  1  0.23284900  0.41294600  0.26161200  1
  H  1134  1  0.28784000  0.45691300  0.21082900  1
  H  1141  1  0.70674500  0.41336900  0.26163900  1
  H  1142  1  0.70653000  0.50178300  0.26178900  1
  H  1143  1  0.65222800  0.45754100  0.21052100  1
  H  1150  1  0.23358400  0.41398300  0.79795700  1
  H  1151  1  0.23222200  0.50237500  0.79893700  1
  H  1152  1  0.28722500  0.45844200  0.84973300  1
  C  1  1  0.58000100  0.10802300  0.38378800  1
  C  2  1  0.57967100  0.07850400  0.38504400  1
  C  3  1  0.59820200  0.06301400  0.40221400  1
  C  4  1  0.61703200  0.07853800  0.41904300  1
  C  5  1  0.61770800  0.10809700  0.41908700  1
  C  6  1  0.59939200  0.12224100  0.40082000  1
  C  7  1  0.59755500  0.03283800  0.40275400  1
  C  8  1  0.59113400  0.01706400  0.37851400  1
  C  9  1  0.59044800  0.98767100  0.37882700  1
  C  10  1  0.59686700  0.97262400  0.40332900  1
  C  11  1  0.60355700  0.98799400  0.42756500  1
  C  12  1  0.60352700  0.01740800  0.42732700  1
  C  13  1  0.56060700  0.12333800  0.36691300  1
  C  14  1  0.55408200  0.11500600  0.33931300  1
  C  15  1  0.53391400  0.12933700  0.32342000  1
  C  16  1  0.51984000  0.15268200  0.33458000  1
  C  17  1  0.52643400  0.16133500  0.36194900  1
  C  18  1  0.54660000  0.14702800  0.37773200  1
  C  19  1  0.63484700  0.12355400  0.43817500  1
  C  20  1  0.62360100  0.14653700  0.45301100  1
  C  21  1  0.63921300  0.16066800  0.47340900  1
  C  22  1  0.66681400  0.15246200  0.47960800  1
  C  23  1  0.67844400  0.12989700  0.46466200  1
  C  24  1  0.66272600  0.11577600  0.44418600  1
  C  40  1  0.36047700  0.80755300  0.38307100  1
  C  41  1  0.36078400  0.83706200  0.38445600  1
  C  42  1  0.34224400  0.85246100  0.40170300  1
  C  43  1  0.32346000  0.83685000  0.41850300  1
  C  44  1  0.32282600  0.80729000  0.41842200  1
  C  45  1  0.34110500  0.79324500  0.40004600  1
  C  46  1  0.34285900  0.88263400  0.40234100  1
  C  47  1  0.34924000  0.89848500  0.37814000  1
  C  48  1  0.34993700  0.92787400  0.37854900  1
  C  49  1  0.34353700  0.94284000  0.40310600  1
  C  50  1  0.33687100  0.92739500  0.42730000  1
  C  51  1  0.33690600  0.89798100  0.42697100  1
  C  52  1  0.37988700  0.79231700  0.36614800  1
  C  53  1  0.38645500  0.80078100  0.33859700  1
  C  54  1  0.40664300  0.78652400  0.32266700  1
  C  55  1  0.42070000  0.76313400  0.33375200  1
  C  56  1  0.41403900  0.75432500  0.36105600  1
  C  57  1  0.39386600  0.76857300  0.37687800  1
  C  58  1  0.30579600  0.79170700  0.43748900  1
  C  59  1  0.31716300  0.76868000  0.45216800  1
  C  60  1  0.30166400  0.75442000  0.47255800  1
  C  61  1  0.27403100  0.76245800  0.47881100  1
  C  62  1  0.26226200  0.78503400  0.46398800  1
  C  63  1  0.27790300  0.79935400  0.44359200  1
  C  79  1  0.58074000  0.80731700  0.67776000  1
  C  80  1  0.58079000  0.83687200  0.67701100  1
  C  81  1  0.59768600  0.85234700  0.65819800  1
  C  82  1  0.61491200  0.83680100  0.63975900  1
  C  83  1  0.61618400  0.80728100  0.64018400  1
  C  84  1  0.59910200  0.79312600  0.65958100  1
  C  85  1  0.59716700  0.88252900  0.65747700  1
  C  86  1  0.57260400  0.89799600  0.66340600  1
  C  87  1  0.57239100  0.92741200  0.66338100  1
  C  88  1  0.59663500  0.94275000  0.65665700  1
  C  89  1  0.62112300  0.92766600  0.65026600  1
  C  90  1  0.62141900  0.89827500  0.65104000  1
  C  91  1  0.56158100  0.79187500  0.69483200  1
  C  92  1  0.55544800  0.79967100  0.72268200  1
  C  93  1  0.53495400  0.78551000  0.73834100  1
  C  94  1  0.52014200  0.76288100  0.72668700  1
  C  95  1  0.52643100  0.75467200  0.69910500  1
  C  96  1  0.54685800  0.76882900  0.68355800  1
  C  97  1  0.63309900  0.79188200  0.62088700  1
  C  98  1  0.62236100  0.76803800  0.60708400  1
  C  99  1  0.63817900  0.75361300  0.58703200  1
  C  100  1  0.66550500  0.76231200  0.58032000  1
  C  101  1  0.67658200  0.78581700  0.59419400  1
  C  102  1  0.66066600  0.80025000  0.61427100  1
  C  118  1  0.35982500  0.10747800  0.67655700  1
  C  119  1  0.36030700  0.07796700  0.67516100  1
  C  120  1  0.34184500  0.06246000  0.65792700  1
  C  121  1  0.32296300  0.07797200  0.64114100  1
  C  122  1  0.32212600  0.10752700  0.64123900  1
  C  123  1  0.34031700  0.12166300  0.65963100  1
  C  124  1  0.34261300  0.03228400  0.65729700  1
  C  125  1  0.34912100  0.01646500  0.68148700  1
  C  126  1  0.34988900  0.98707500  0.68110300  1
  C  127  1  0.34344300  0.97206200  0.65658800  1
  C  128  1  0.33667600  0.98747600  0.63239800  1
  C  129  1  0.33665100  0.01689000  0.63269600  1
  C  130  1  0.37917300  0.12285200  0.69343600  1
  C  131  1  0.38597800  0.11438200  0.72092600  1
  C  132  1  0.40610300  0.12880600  0.73678300  1
  C  133  1  0.41980000  0.15242800  0.72574800  1
  C  134  1  0.41290400  0.16122600  0.69849400  1
  C  135  1  0.39283600  0.14678600  0.68271800  1
  C  136  1  0.30498900  0.12302800  0.62218000  1
  C  137  1  0.31615200  0.14624600  0.60764500  1
  C  138  1  0.30056300  0.16048100  0.58730900  1
  C  139  1  0.27306200  0.15214900  0.58085600  1
  C  140  1  0.26152300  0.12931500  0.59545600  1
  C  141  1  0.27720900  0.11510400  0.61589800  1
  C  157  1  0.81963300  0.31132000  0.42005900  1
  C  158  1  0.84915500  0.31257800  0.42033800  1
  C  159  1  0.86461800  0.32982800  0.40185700  1
  C  160  1  0.84905600  0.34673600  0.38312500  1
  C  161  1  0.81949200  0.34679400  0.38251800  1
  C  162  1  0.80537900  0.32844100  0.40077000  1
  C  163  1  0.89480300  0.33034700  0.40247400  1
  C  164  1  0.91056900  0.30609200  0.40886500  1
  C  165  1  0.93996200  0.30638800  0.40957200  1
  C  166  1  0.95502800  0.33089400  0.40321900  1
  C  167  1  0.93967100  0.35513900  0.39653400  1
  C  168  1  0.91025300  0.35491700  0.39654200  1
  C  169  1  0.80436600  0.29434300  0.43940400  1
  C  170  1  0.81277800  0.26674300  0.44583000  1
  C  171  1  0.79854100  0.25076500  0.46599400  1
  C  172  1  0.77520100  0.26182800  0.48014000  1
  C  173  1  0.76645200  0.28919200  0.47364500  1
  C  174  1  0.78066000  0.30505400  0.45346800  1
  C  175  1  0.80398300  0.36592600  0.36547200  1
  C  176  1  0.78101200  0.38072000  0.37681400  1
  C  177  1  0.76681200  0.40113100  0.36127900  1
  C  178  1  0.77490100  0.40732300  0.33365000  1
  C  179  1  0.79742500  0.39241000  0.32189900  1
  C  180  1  0.81166600  0.37198100  0.33757300  1
  C  196  1  0.12074000  0.31148000  0.63990000  1
  C  197  1  0.09121500  0.31267500  0.63959400  1
  C  198  1  0.07571000  0.32987700  0.65808100  1
  C  199  1  0.09121600  0.34677300  0.67686300  1
  C  200  1  0.12077800  0.34687500  0.67750800  1
  C  201  1  0.13494600  0.32858700  0.65923100  1
  C  202  1  0.04553500  0.33037200  0.65743100  1
  C  203  1  0.02980100  0.30609100  0.65106700  1
  C  204  1  0.00041100  0.30636900  0.65034600  1
  C  205  1  0.98533000  0.33086900  0.65667800  1
  C  206  1  0.00065400  0.35513800  0.66333700  1
  C  207  1  0.03007000  0.35494200  0.66332300  1
  C  208  1  0.13605300  0.29457800  0.62053500  1
  C  209  1  0.12775400  0.26695000  0.61411700  1
  C  210  1  0.14206000  0.25103300  0.59395700  1
  C  211  1  0.16536800  0.26216600  0.57980100  1
  C  212  1  0.17397300  0.28957900  0.58628300  1
  C  213  1  0.15968400  0.30539800  0.60643300  1
  C  214  1  0.13621100  0.36602300  0.69459200  1
  C  215  1  0.15912800  0.38090800  0.68327100  1
  C  216  1  0.17323300  0.40137000  0.69882200  1
  C  217  1  0.16503800  0.40758100  0.72641800  1
  C  218  1  0.14255200  0.39259600  0.73813900  1
  C  219  1  0.12845800  0.37206300  0.72247600  1
  C  235  1  0.12012700  0.60519700  0.41831300  1
  C  236  1  0.09057000  0.60442500  0.41841500  1
  C  237  1  0.07502400  0.58559000  0.40161300  1
  C  238  1  0.09050200  0.56713700  0.38433500  1
  C  239  1  0.12002000  0.56757000  0.38292700  1
  C  240  1  0.13423700  0.58702900  0.39988200  1
  C  241  1  0.04484500  0.58486200  0.40227200  1
  C  242  1  0.02947900  0.59083600  0.42688900  1
  C  243  1  0.00006100  0.59084200  0.42722100  1
  C  244  1  0.98461400  0.58410800  0.40304600  1
  C  245  1  0.99959800  0.57765000  0.37851400  1
  C  246  1  0.02899100  0.57838800  0.37809700  1
  C  247  1  0.13565900  0.62228000  0.43738500  1
  C  248  1  0.12784800  0.65010100  0.44360600  1
  C  249  1  0.14210900  0.66575000  0.46403800  1
  C  250  1  0.16485600  0.65412000  0.47870300  1
  C  251  1  0.17304900  0.62655700  0.47233900  1
  C  252  1  0.15878400  0.61101100  0.45199100  1
  C  253  1  0.13536900  0.54823700  0.36599500  1
  C  254  1  0.15936200  0.53460700  0.37663200  1
  C  255  1  0.17376800  0.51453900  0.36082100  1
  C  256  1  0.16488600  0.50762800  0.33359600  1
  C  257  1  0.14121400  0.52129200  0.32263100  1
  C  258  1  0.12682500  0.54141400  0.33853100  1
  C  274  1  0.81986900  0.60536000  0.64122500  1
  C  275  1  0.84942700  0.60461100  0.64111200  1
  C  276  1  0.86499500  0.58579100  0.65791500  1
  C  277  1  0.84954700  0.56732500  0.67519700  1
  C  278  1  0.82003300  0.56772700  0.67660000  1
  C  279  1  0.80578300  0.58715900  0.65964400  1
  C  280  1  0.89517100  0.58508800  0.65724900  1
  C  281  1  0.91052200  0.59102900  0.63261700  1
  C  282  1  0.93993800  0.59103900  0.63227500  1
  C  283  1  0.95539000  0.58434400  0.65645900  1
  C  284  1  0.94042100  0.57792100  0.68101000  1
  C  285  1  0.91103000  0.57865700  0.68143300  1
  C  286  1  0.80431400  0.62242500  0.62215700  1
  C  287  1  0.81211600  0.65024400  0.61591100  1
  C  288  1  0.79784300  0.66588900  0.59548300  1
  C  289  1  0.77512400  0.65420900  0.58082500  1
  C  290  1  0.76690700  0.62666300  0.58721600  1
  C  291  1  0.78118200  0.61114100  0.60757400  1
  C  292  1  0.80472200  0.54836700  0.69351800  1
  C  293  1  0.78085600  0.53457300  0.68281600  1
  C  294  1  0.76649000  0.51448400  0.69863000  1
  C  295  1  0.77531500  0.50769900  0.72590200  1
  C  296  1  0.79885100  0.52153700  0.73693800  1
  C  297  1  0.81320100  0.54167800  0.72103200  1
  C  313  1  0.61679000  0.34727500  0.17994200  1
  C  314  1  0.61537300  0.34774500  0.15042900  1
  C  315  1  0.59813900  0.32926800  0.13493800  1
  C  316  1  0.58135400  0.31040400  0.15047100  1
  C  317  1  0.58146100  0.30959300  0.18003100  1
  C  318  1  0.59986400  0.32778500  0.19414900  1
  C  319  1  0.59751300  0.33000500  0.10475700  1
  C  320  1  0.62170200  0.33650100  0.08893300  1
  C  321  1  0.62132200  0.33725600  0.05954000  1
  C  322  1  0.59680100  0.33082800  0.04452700  1
  C  323  1  0.57261400  0.32406300  0.05994400  1
  C  324  1  0.57291700  0.32402500  0.08936300  1
  C  325  1  0.63367500  0.36663200  0.19529700  1
  C  326  1  0.66116400  0.37342200  0.18681100  1
  C  327  1  0.67702400  0.39357300  0.20119900  1
  C  328  1  0.66596300  0.40732400  0.22478300  1
  C  329  1  0.63871800  0.40045000  0.23359900  1
  C  330  1  0.62295400  0.38034000  0.21920800  1
  C  331  1  0.56240800  0.29247400  0.19556100  1
  C  332  1  0.54789200  0.30366200  0.21878000  1
  C  333  1  0.52757300  0.28808500  0.23305900  1
  C  334  1  0.52110600  0.26058400  0.22474300  1
  C  335  1  0.53569300  0.24902100  0.20191000  1
  C  336  1  0.55612500  0.26469000  0.18766800  1
  C  352  1  0.61788500  0.56834000  0.87938700  1
  C  353  1  0.61715800  0.56838100  0.90894600  1
  C  354  1  0.59836100  0.58528100  0.92443600  1
  C  355  1  0.57991700  0.60251300  0.90890800  1
  C  356  1  0.58032400  0.60378700  0.87938700  1
  C  357  1  0.59969600  0.58669900  0.86520900  1
  C  358  1  0.59765100  0.58475000  0.95461400  1
  C  359  1  0.60354100  0.56017000  0.97006700  1
  C  360  1  0.60352300  0.55994600  0.99948200  1
  C  361  1  0.59684200  0.58419900  0.01482700  1
  C  362  1  0.59050200  0.60870600  0.99976200  1
  C  363  1  0.59124800  0.60900600  0.97037000  1
  C  364  1  0.63493100  0.54917500  0.86393600  1
  C  365  1  0.66279900  0.54307900  0.87168900  1
  C  366  1  0.67845000  0.52258200  0.85752500  1
  C  367  1  0.66670700  0.50766900  0.83500100  1
  C  368  1  0.63911800  0.51391900  0.82681900  1
  C  369  1  0.62359600  0.53436900  0.84097300  1
  C  370  1  0.56101200  0.62070400  0.86401800  1
  C  371  1  0.54713900  0.60994800  0.84022200  1
  C  372  1  0.52700300  0.62573800  0.82589100  1
  C  373  1  0.52033900  0.65308000  0.83457800  1
  C  374  1  0.53431800  0.66418600  0.85800700  1
  C  375  1  0.55443300  0.64827500  0.87239000  1
  C  391  1  0.32343400  0.34797300  0.87964400  1
  C  392  1  0.32480600  0.34827500  0.90916100  1
  C  393  1  0.34205400  0.32974500  0.92457200  1
  C  394  1  0.35886000  0.31096400  0.90895800  1
  C  395  1  0.35878600  0.31031500  0.87939400  1
  C  396  1  0.34041200  0.32859600  0.86534400  1
  C  397  1  0.34267200  0.33035600  0.95475600  1
  C  398  1  0.31847800  0.33678900  0.97059900  1
  C  399  1  0.31886100  0.33746700  0.99999500  1
  C  400  1  0.34338900  0.33101000  0.01498500  1
  C  401  1  0.36757700  0.32429100  0.99954900  1
  C  402  1  0.36727400  0.32435200  0.97013000  1
  C  403  1  0.30649500  0.36736900  0.86439700  1
  C  404  1  0.27895200  0.37394000  0.87287600  1
  C  405  1  0.26302300  0.39412900  0.85862000  1
  C  406  1  0.27403100  0.40812800  0.83516200  1
  C  407  1  0.30134500  0.40147200  0.82636000  1
  C  408  1  0.31718100  0.38130400  0.84060600  1
  C  409  1  0.37783700  0.29324800  0.86380300  1
  C  410  1  0.39245200  0.30454000  0.84069700  1
  C  411  1  0.41274700  0.28898700  0.82635600  1
  C  412  1  0.41910600  0.26141200  0.83450900  1
  C  413  1  0.40440800  0.24973900  0.85721800  1
  C  414  1  0.38401600  0.26539400  0.87153500  1
  C  430  1  0.32385200  0.56736300  0.18070100  1
  C  431  1  0.32508800  0.56702700  0.15117600  1
  C  432  1  0.34226100  0.58553900  0.13566600  1
  C  433  1  0.35910000  0.60436900  0.15117400  1
  C  434  1  0.35916600  0.60505800  0.18073500  1
  C  435  1  0.34090800  0.58675000  0.19490100  1
  C  436  1  0.34278400  0.58487700  0.10548700  1
  C  437  1  0.31853600  0.57845400  0.08972800  1
  C  438  1  0.31883200  0.57776300  0.06033300  1
  C  439  1  0.34331500  0.58421000  0.04527000  1
  C  440  1  0.36756200  0.59089700  0.06062300  1
  C  441  1  0.36734900  0.59084200  0.09003900  1
  C  442  1  0.30696000  0.54799000  0.19603000  1
  C  443  1  0.27939000  0.54140500  0.18764500  1
  C  444  1  0.26350700  0.52122300  0.20196000  1
  C  445  1  0.27460000  0.50721800  0.22537700  1
  C  446  1  0.30193200  0.51389600  0.23409700  1
  C  447  1  0.31772500  0.53405400  0.21978500  1
  C  448  1  0.37826800  0.62219700  0.19616600  1
  C  449  1  0.39315600  0.61096100  0.21912400  1
  C  450  1  0.41359700  0.62657600  0.23319400  1
  C  451  1  0.41975400  0.65418100  0.22498700  1
  C  452  1  0.40476100  0.66579500  0.20244300  1
  C  453  1  0.38425800  0.65007300  0.18836700  1
  C  469  1  0.82018500  0.34721100  0.67669000  1
  C  470  1  0.84969800  0.34766600  0.67533200  1
  C  471  1  0.86520000  0.32923800  0.65806300  1
  C  472  1  0.84969700  0.31040900  0.64121400  1
  C  473  1  0.82014100  0.30963300  0.64127100  1
  C  474  1  0.80599000  0.32778600  0.65968500  1
  C  475  1  0.89536900  0.32999500  0.65746000  1
  C  476  1  0.91115600  0.33641300  0.68169400  1
  C  477  1  0.94054300  0.33720100  0.68133700  1
  C  478  1  0.95556900  0.33090800  0.65679300  1
  C  479  1  0.94019200  0.32421900  0.63256100  1
  C  480  1  0.91077800  0.32414600  0.63284400  1
  C  481  1  0.80483700  0.36654100  0.69359700  1
  C  482  1  0.81328000  0.37321600  0.72112400  1
  C  483  1  0.79892600  0.39337300  0.73700500  1
  C  484  1  0.77542000  0.40724100  0.72593600  1
  C  485  1  0.76665900  0.40048100  0.69863600  1
  C  486  1  0.78099400  0.38034200  0.68285500  1
  C  487  1  0.80465000  0.29258700  0.62214300  1
  C  488  1  0.78158300  0.30390000  0.60748400  1
  C  489  1  0.76738000  0.28840000  0.58706100  1
  C  490  1  0.77560400  0.26085200  0.58069800  1
  C  491  1  0.79822500  0.24912200  0.59547300  1
  C  492  1  0.81245000  0.26475800  0.61593600  1
  C  508  1  0.12066900  0.56875100  0.67698200  1
  C  509  1  0.09111200  0.56880100  0.67634800  1
  C  510  1  0.07556400  0.58563600  0.65753900  1
  C  511  1  0.09104200  0.60283800  0.63902400  1
  C  512  1  0.12056600  0.60410600  0.63932900  1
  C  513  1  0.13480200  0.58704200  0.65868600  1
  C  514  1  0.04538300  0.58507100  0.65690300  1
  C  515  1  0.02997400  0.56049000  0.66289500  1
  C  516  1  0.00056000  0.56023100  0.66296400  1
  C  517  1  0.98516000  0.58444800  0.65627300  1
  C  518  1  0.00018300  0.60894600  0.64979700  1
  C  519  1  0.02957800  0.60928900  0.65047500  1
  C  520  1  0.13614200  0.54964500  0.69407400  1
  C  521  1  0.12847200  0.54371000  0.72199800  1
  C  522  1  0.14264000  0.52325400  0.73769700  1
  C  523  1  0.16511700  0.50822900  0.72599600  1
  C  524  1  0.17316200  0.51429300  0.69831900  1
  C  525  1  0.15901600  0.53470700  0.68273500  1
  C  526  1  0.13586900  0.62104600  0.61996900  1
  C  527  1  0.15965700  0.61033500  0.60603500  1
  C  528  1  0.17396300  0.62617300  0.58591000  1
  C  529  1  0.16516600  0.65347900  0.57925000  1
  C  530  1  0.14173900  0.66454900  0.59325200  1
  C  531  1  0.12742700  0.64860000  0.61339100  1
  C  547  1  0.12023700  0.34728400  0.38338200  1
  C  548  1  0.09072300  0.34775700  0.38472700  1
  C  549  1  0.07519500  0.32930200  0.40194900  1
  C  550  1  0.09068900  0.31044800  0.41878700  1
  C  551  1  0.12024800  0.30965100  0.41875500  1
  C  552  1  0.13441000  0.32781700  0.40035900  1
  C  553  1  0.04501800  0.33005900  0.40251800  1
  C  554  1  0.02924500  0.33653500  0.37829000  1
  C  555  1  0.99985400  0.33732800  0.37862200  1
  C  556  1  0.98479800  0.33095200  0.40312900  1
  C  557  1  0.00016100  0.32418700  0.42734800  1
  C  558  1  0.02957900  0.32413300  0.42710000  1
  C  559  1  0.13562100  0.36660300  0.36648500  1
  C  560  1  0.12720700  0.37327900  0.33894800  1
  C  561  1  0.14161700  0.39339100  0.32306100  1
  C  562  1  0.16515900  0.40718000  0.33414000  1
  C  563  1  0.17390100  0.40044600  0.36144600  1
  C  564  1  0.15947800  0.38037600  0.37723700  1
  C  565  1  0.13573200  0.29255100  0.43785800  1
  C  566  1  0.15890700  0.30377400  0.45241900  1
  C  567  1  0.17312600  0.28823200  0.47280200  1
  C  568  1  0.16482900  0.26071600  0.47924700  1
  C  569  1  0.14206900  0.24910800  0.46459700  1
  C  570  1  0.12785400  0.26476100  0.44413400  1
  C  586  1  0.81929900  0.56849700  0.38258300  1
  C  587  1  0.84886000  0.56854100  0.38322300  1
  C  588  1  0.86441500  0.58539000  0.40201100  1
  C  589  1  0.84894000  0.60260700  0.42052000  1
  C  590  1  0.81941300  0.60386700  0.42023400  1
  C  591  1  0.80517800  0.58680200  0.40087900  1
  C  592  1  0.89460300  0.58482900  0.40263100  1
  C  593  1  0.91002000  0.56025700  0.39661300  1
  C  594  1  0.93943700  0.56000300  0.39652800  1
  C  595  1  0.95483900  0.58421600  0.40322500  1
  C  596  1  0.93980600  0.60870700  0.40972600  1
  C  597  1  0.91040900  0.60904500  0.40906500  1
  C  598  1  0.80381000  0.54939100  0.36549300  1
  C  599  1  0.81153700  0.54335700  0.33760000  1
  C  600  1  0.79736100  0.52290100  0.32190600  1
  C  601  1  0.77483400  0.50796400  0.33361100  1
  C  602  1  0.76669900  0.51413200  0.36123600  1
  C  603  1  0.78085400  0.53455400  0.37679900  1
  C  604  1  0.80410300  0.62079400  0.43960600  1
  C  605  1  0.78030700  0.61008800  0.45352400  1
  C  606  1  0.76596600  0.62593300  0.47362200  1
  C  607  1  0.77472100  0.65325800  0.48027300  1
  C  608  1  0.79818600  0.66429500  0.46630900  1
  C  609  1  0.81252000  0.64835500  0.44618000  1
  C  625  1  0.61769200  0.10796100  0.64088100  1
  C  626  1  0.61694300  0.07840600  0.64091200  1
  C  627  1  0.59813900  0.06292500  0.65781000  1
  C  628  1  0.57970700  0.07846900  0.67505100  1
  C  629  1  0.58014300  0.10798900  0.67635000  1
  C  630  1  0.59953200  0.12214700  0.65926200  1
  C  631  1  0.59740900  0.03274400  0.65727600  1
  C  632  1  0.60332900  0.01728300  0.63270700  1
  C  633  1  0.60329300  0.98786900  0.63248200  1
  C  634  1  0.59657300  0.97252000  0.65672600  1
  C  635  1  0.59020200  0.98759600  0.68122200  1
  C  636  1  0.59095700  0.01698800  0.68152300  1
  C  637  1  0.63474300  0.12340900  0.62171500  1
  C  638  1  0.66261300  0.11566100  0.61563100  1
  C  639  1  0.67827300  0.12984000  0.59515000  1
  C  640  1  0.66656100  0.15239400  0.58024900  1
  C  641  1  0.63895300  0.16053200  0.58646500  1
  C  642  1  0.62341800  0.14637500  0.60690500  1
  C  643  1  0.56085300  0.12337800  0.69329400  1
  C  644  1  0.54710500  0.14728000  0.68261400  1
  C  645  1  0.52705900  0.16169500  0.69844600  1
  C  646  1  0.52025100  0.15290100  0.72572300  1
  C  647  1  0.53404300  0.12931500  0.73672900  1
  C  648  1  0.55415300  0.11492400  0.72081500  1
  C  664  1  0.61701300  0.80746800  0.41978600  1
  C  665  1  0.61559700  0.83697800  0.42027800  1
  C  666  1  0.59836400  0.85248100  0.40180900  1
  C  667  1  0.58158200  0.83697200  0.38292500  1
  C  668  1  0.58168600  0.80741900  0.38210300  1
  C  669  1  0.60007900  0.79328000  0.40028800  1
  C  670  1  0.59773000  0.88265200  0.40257000  1
  C  671  1  0.62193000  0.89846700  0.40903400  1
  C  672  1  0.62154200  0.92785300  0.40981000  1
  C  673  1  0.59701100  0.94286000  0.40340900  1
  C  674  1  0.57281100  0.92745000  0.39668000  1
  C  675  1  0.57311800  0.89803800  0.39663800  1
  C  676  1  0.63389800  0.79210300  0.43913500  1
  C  677  1  0.66136600  0.80061500  0.44598200  1
  C  678  1  0.67721800  0.78623000  0.46614700  1
  C  679  1  0.66615500  0.76263300  0.47986600  1
  C  680  1  0.63894600  0.75376600  0.47290800  1
  C  681  1  0.62319000  0.76816500  0.45279800  1
  C  682  1  0.56261800  0.79192300  0.36499200  1
  C  683  1  0.54799700  0.76878900  0.37621700  1
  C  684  1  0.52758700  0.75462400  0.36066400  1
  C  685  1  0.52124200  0.76287300  0.33311400  1
  C  686  1  0.53600200  0.78556000  0.32148400  1
  C  687  1  0.55643300  0.79977300  0.33717300  1
  C  703  1  0.32369100  0.80689200  0.63951200  1
  C  704  1  0.32498400  0.83641200  0.63921200  1
  C  705  1  0.34220600  0.85187700  0.65771900  1
  C  706  1  0.35906000  0.83631200  0.67649800  1
  C  707  1  0.35908300  0.80675000  0.67714500  1
  C  708  1  0.34075900  0.79264500  0.65885900  1
  C  709  1  0.34275700  0.88206000  0.65709900  1
  C  710  1  0.31853200  0.89785500  0.65066500  1
  C  711  1  0.31885800  0.92724800  0.64998900  1
  C  712  1  0.34335100  0.94228900  0.65644600  1
  C  713  1  0.36757200  0.92690100  0.66316000  1
  C  714  1  0.36733000  0.89748500  0.66309800  1
  C  715  1  0.30673900  0.79160900  0.62014500  1
  C  716  1  0.27919400  0.80007500  0.61355200  1
  C  717  1  0.26326900  0.78581600  0.59335800  1
  C  718  1  0.27427800  0.76234900  0.57937300  1
  C  719  1  0.30158300  0.75354700  0.58607300  1
  C  720  1  0.31741600  0.76780000  0.60623700  1
  C  721  1  0.37817000  0.79124300  0.69424600  1
  C  722  1  0.39297800  0.76825100  0.68297000  1
  C  723  1  0.41332900  0.75403300  0.69857800  1
  C  724  1  0.41950600  0.76216800  0.72620100  1
  C  725  1  0.40460600  0.78475700  0.73784900  1
  C  726  1  0.38419000  0.79896900  0.72213600  1
  C  742  1  0.32355400  0.10793700  0.42016700  1
  C  743  1  0.32489100  0.07842200  0.42049900  1
  C  744  1  0.34210400  0.06298200  0.40196300  1
  C  745  1  0.35889400  0.07855300  0.38313800  1
  C  746  1  0.35884400  0.10811300  0.38245100  1
  C  747  1  0.34051700  0.12220000  0.40075400  1
  C  748  1  0.34271300  0.03280900  0.40261200  1
  C  749  1  0.31850500  0.01698800  0.40902800  1
  C  750  1  0.31887800  0.98759800  0.40971600  1
  C  751  1  0.34340600  0.97260200  0.40327700  1
  C  752  1  0.36761200  0.98801800  0.39659000  1
  C  753  1  0.36732200  0.01743100  0.39664500  1
  C  754  1  0.30665600  0.12321200  0.43956800  1
  C  755  1  0.27909400  0.11479300  0.44612400  1
  C  756  1  0.26318400  0.12908300  0.46630100  1
  C  757  1  0.27426200  0.15249200  0.48031700  1
  C  758  1  0.30159500  0.16124400  0.47369300  1
  C  759  1  0.31740900  0.14695500  0.45353400  1
  C  760  1  0.37789900  0.12364300  0.36534500  1
  C  761  1  0.39256300  0.14673100  0.37660100  1
  C  762  1  0.41291100  0.16097200  0.36102900  1
  C  763  1  0.41929200  0.15272100  0.33348300  1
  C  764  1  0.40453600  0.13003900  0.32184500  1
  C  765  1  0.38406300  0.11584600  0.33750200  1
  C  781  1  0.57978400  0.31121300  0.87931400  1
  C  782  1  0.57947700  0.31246700  0.90883900  1
  C  783  1  0.59798400  0.32966500  0.92433000  1
  C  784  1  0.61678600  0.34651400  0.90879200  1
  C  785  1  0.61744000  0.34657200  0.87922900  1
  C  786  1  0.59915600  0.32827100  0.86509200  1
  C  787  1  0.59734500  0.33019800  0.95451600  1
  C  788  1  0.59089100  0.30596800  0.97029300  1
  C  789  1  0.59021500  0.30627200  0.99969100  1
  C  790  1  0.59665600  0.33075700  0.01475100  1
  C  791  1  0.60337900  0.35498400  0.99938000  1
  C  792  1  0.60334300  0.35475700  0.96996100  1
  C  793  1  0.56040100  0.29431000  0.86400100  1
  C  794  1  0.55378900  0.26675400  0.87241700  1
  C  795  1  0.53361700  0.25085400  0.85809800  1
  C  796  1  0.51965500  0.26194300  0.83465900  1
  C  797  1  0.52632700  0.28926700  0.82591800  1
  C  798  1  0.54649700  0.30505300  0.84021400  1
  C  799  1  0.63455800  0.36566600  0.86374900  1
  C  800  1  0.62329200  0.38049300  0.84076400  1
  C  801  1  0.63888700  0.40089200  0.82661100  1
  C  802  1  0.66650400  0.40703800  0.83476800  1
  C  803  1  0.67818100  0.39209200  0.85730800  1
  C  804  1  0.66245100  0.37166800  0.87149100  1
  C  820  1  0.36045500  0.31098000  0.18011700  1
  C  821  1  0.36076000  0.31231900  0.15059900  1
  C  822  1  0.34222800  0.32954800  0.13517100  1
  C  823  1  0.32342700  0.34635300  0.15076500  1
  C  824  1  0.32277600  0.34630900  0.18032900  1
  C  825  1  0.34105800  0.32795100  0.19439700  1
  C  826  1  0.34285500  0.33015900  0.10498800  1
  C  827  1  0.34928300  0.30596100  0.08915200  1
  C  828  1  0.34997000  0.30634100  0.05975700  1
  C  829  1  0.34353200  0.33086600  0.04475900  1
  C  830  1  0.33681200  0.35505700  0.06019000  1
  C  831  1  0.33685500  0.35475800  0.08960800  1
  C  832  1  0.37986500  0.29408200  0.19538600  1
  C  833  1  0.38644400  0.26652600  0.18695900  1
  C  834  1  0.40659900  0.25060800  0.20127400  1
  C  835  1  0.42057200  0.26166900  0.22472200  1
  C  836  1  0.41395200  0.28900800  0.23345300  1
  C  837  1  0.39382200  0.30483000  0.21913900  1
  C  838  1  0.30569000  0.36535900  0.19589500  1
  C  839  1  0.31698500  0.38000200  0.21898200  1
  C  840  1  0.30144000  0.40033300  0.23327800  1
  C  841  1  0.27387200  0.40667000  0.22509500  1
  C  842  1  0.26217100  0.39194400  0.20242700  1
  C  843  1  0.27783400  0.37153200  0.18814800  1
  C  859  1  0.58104400  0.60524900  0.18001200  1
  C  860  1  0.58110100  0.60452500  0.15045600  1
  C  861  1  0.59800800  0.58572300  0.13498000  1
  C  862  1  0.61525200  0.56729900  0.15052000  1
  C  863  1  0.61649800  0.56770400  0.18004200  1
  C  864  1  0.59939900  0.58707500  0.19420900  1
  C  865  1  0.59747100  0.58498500  0.10480400  1
  C  866  1  0.57288400  0.59085300  0.08935300  1
  C  867  1  0.57265800  0.59081000  0.05993700  1
  C  868  1  0.59691200  0.58412800  0.04459300  1
  C  869  1  0.62141800  0.57778000  0.05966000  1
  C  870  1  0.62172700  0.57857100  0.08905100  1
  C  871  1  0.56187500  0.62230300  0.19544000  1
  C  872  1  0.55585600  0.65019500  0.18772400  1
  C  873  1  0.53536200  0.66585700  0.20187700  1
  C  874  1  0.52039900  0.65411800  0.22436800  1
  C  875  1  0.52654500  0.62648700  0.23248100  1
  C  876  1  0.54699100  0.61094900  0.21834400  1
  C  877  1  0.63342200  0.54840300  0.19541900  1
  C  878  1  0.62267200  0.53455200  0.21923000  1
  C  879  1  0.63848100  0.51445900  0.23360300  1
  C  880  1  0.66581500  0.50778200  0.22488300  1
  C  881  1  0.67690500  0.52170200  0.20142100  1
  C  882  1  0.66099700  0.54182000  0.18704400  1
  C  898  1  0.35980000  0.60442600  0.88013000  1
  C  899  1  0.36025700  0.60302200  0.90964000  1
  C  900  1  0.34178400  0.58578300  0.92512300  1
  C  901  1  0.32292000  0.56899400  0.90959700  1
  C  902  1  0.32213900  0.56908700  0.88004000  1
  C  903  1  0.34033700  0.58747600  0.86591400  1
  C  904  1  0.34252600  0.58513800  0.95529400  1
  C  905  1  0.34896200  0.60933400  0.97112500  1
  C  906  1  0.34973000  0.60893100  0.00051500  1
  C  907  1  0.34336800  0.58437900  0.01550300  1
  C  908  1  0.33664900  0.56019000  0.00007900  1
  C  909  1  0.33661900  0.56051100  0.97066400  1
  C  910  1  0.37916100  0.62130600  0.86478900  1
  C  911  1  0.38589900  0.64881800  0.87324700  1
  C  912  1  0.40605300  0.66468700  0.85887200  1
  C  913  1  0.41987400  0.65358100  0.83535800  1
  C  914  1  0.41305600  0.62631300  0.82655800  1
  C  915  1  0.39293500  0.61055300  0.84093300  1
  C  916  1  0.30504800  0.55001700  0.86452900  1
  C  917  1  0.31631100  0.53537600  0.84142500  1
  C  918  1  0.30075300  0.51502300  0.82718400  1
  C  919  1  0.27319900  0.50867400  0.83543100  1
  C  920  1  0.26154800  0.52340500  0.85811900  1
  C  921  1  0.27721500  0.54384400  0.87234400  1
  C  937  1  0.67954400  0.16226500  0.50448600  1
  C  938  1  0.66890000  0.15240800  0.52993000  1
  C  939  1  0.67933400  0.16230200  0.55543800  1
  C  940  1  0.70078900  0.18253000  0.55519600  1
  C  941  1  0.71257800  0.19358900  0.53007100  1
  C  942  1  0.70113500  0.18235400  0.50486800  1
  C  946  1  0.26138500  0.75249600  0.50365800  1
  C  947  1  0.27200800  0.76229900  0.52912000  1
  C  948  1  0.26154800  0.75234800  0.55459100  1
  C  949  1  0.23997400  0.73223500  0.55430500  1
  C  950  1  0.22825600  0.72118300  0.52914300  1
  C  951  1  0.23983600  0.73237000  0.50397700  1
  C  955  1  0.67824900  0.75223600  0.55559000  1
  C  956  1  0.66798300  0.76232400  0.53010300  1
  C  957  1  0.67871600  0.75254100  0.50468400  1
  C  958  1  0.70026300  0.73240400  0.50504300  1
  C  959  1  0.71158100  0.72102900  0.53024400  1
  C  960  1  0.69963500  0.73193000  0.55536900  1
  C  964  1  0.26051700  0.16205300  0.55593000  1
  C  965  1  0.27144300  0.15234200  0.53055300  1
  C  966  1  0.26143500  0.16255800  0.50501200  1
  C  967  1  0.24016100  0.18297700  0.50512000  1
  C  968  1  0.22799700  0.19377400  0.53017400  1
  C  969  1  0.23899800  0.18221800  0.55543600  1
  C  973  1  0.76497400  0.43215500  0.32091300  1
  C  974  1  0.77487000  0.45763900  0.33140600  1
  C  975  1  0.76495100  0.48310800  0.32088800  1
  C  976  1  0.74473300  0.48277400  0.29941500  1
  C  977  1  0.73354600  0.45760000  0.28785200  1
  C  978  1  0.74474000  0.43244900  0.29945500  1
  C  982  1  0.17484800  0.43247100  0.73912600  1
  C  983  1  0.16509000  0.45791000  0.72838400  1
  C  984  1  0.17499200  0.48342100  0.73880200  1
  C  985  1  0.19513400  0.48318400  0.76033900  1
  C  986  1  0.20611700  0.45806600  0.77220900  1
  C  987  1  0.19486300  0.43286100  0.76078800  1
  C  991  1  0.17503300  0.48281600  0.32105900  1
  C  992  1  0.16515300  0.45739700  0.33169000  1
  C  993  1  0.17529200  0.43191800  0.32146100  1
  C  994  1  0.19569200  0.43213600  0.30016800  1
  C  995  1  0.20668600  0.45725700  0.28831500  1
  C  996  1  0.19530600  0.48245600  0.29963600  1
  C  1000  1  0.76524600  0.48290800  0.73853100  1
  C  1001  1  0.77520500  0.45746800  0.72803000  1
  C  1002  1  0.76533700  0.43201100  0.73857300  1
  C  1003  1  0.74521000  0.43227300  0.76012700  1
  C  1004  1  0.73403500  0.45742100  0.77175000  1
  C  1005  1  0.74507100  0.48259600  0.76004300  1
  C  1009  1  0.49615900  0.24807000  0.23462900  1
  C  1010  1  0.47080800  0.25891200  0.22477000  1
  C  1011  1  0.44524000  0.24884500  0.23486100  1
  C  1012  1  0.44530200  0.22754000  0.25525100  1
  C  1013  1  0.47033400  0.21549200  0.26623600  1
  C  1014  1  0.49562200  0.22660200  0.25484800  1
  C  1018  1  0.49554300  0.66579000  0.82462900  1
  C  1019  1  0.47012100  0.65543600  0.83478700  1
  C  1020  1  0.44464100  0.66618800  0.82519200  1
  C  1021  1  0.44487300  0.68785200  0.80518400  1
  C  1022  1  0.46999900  0.69925600  0.79373600  1
  C  1023  1  0.49519500  0.68730200  0.80445600  1
  C  1027  1  0.44400300  0.24882300  0.82458700  1
  C  1028  1  0.46940300  0.25948400  0.83450900  1
  C  1029  1  0.49493200  0.24918400  0.82454400  1
  C  1030  1  0.49477400  0.22773500  0.80429800  1
  C  1031  1  0.46968400  0.21595600  0.79314800  1
  C  1032  1  0.44444800  0.22737900  0.80434400  1
  C  1036  1  0.44466300  0.66692800  0.23468600  1
  C  1037  1  0.47006600  0.65635100  0.22466200  1
  C  1038  1  0.49561000  0.66688700  0.23434800  1
  C  1039  1  0.49545100  0.68846400  0.25444800  1
  C  1040  1  0.47037500  0.70010700  0.26576000  1
  C  1041  1  0.44512500  0.68849000  0.25480400  1
  C  1045  1  0.76569400  0.24827300  0.55579200  1
  C  1046  1  0.77533400  0.25916900  0.53038200  1
  C  1047  1  0.76525100  0.24895300  0.50486800  1
  C  1048  1  0.74508700  0.22743200  0.50505300  1
  C  1049  1  0.73426200  0.21538300  0.53015700  1
  C  1050  1  0.74565900  0.22664200  0.55537300  1
  C  1054  1  0.17516300  0.66627500  0.55449700  1
  C  1055  1  0.16505900  0.65600900  0.52901000  1
  C  1056  1  0.17484300  0.66666667  0.50357000  1
  C  1057  1  0.19509500  0.68813400  0.50393100  1
  C  1058  1  0.20645700  0.69949700  0.52911800  1
  C  1059  1  0.19545600  0.68767700  0.55425700  1
  C  1063  1  0.17477000  0.24824400  0.50419800  1
  C  1064  1  0.16519000  0.25929600  0.52957100  1
  C  1065  1  0.17539000  0.24928500  0.55511900  1
  C  1066  1  0.19565400  0.22786100  0.55502100  1
  C  1067  1  0.20632500  0.21557500  0.52997300  1
  C  1068  1  0.19477200  0.22657300  0.50470900  1
  C  1072  1  0.76464800  0.66603900  0.50500300  1
  C  1073  1  0.77486100  0.65593600  0.53051100  1
  C  1074  1  0.76512900  0.66674200  0.55592800  1
  C  1075  1  0.74490400  0.68820100  0.55552300  1
  C  1076  1  0.73338200  0.69934600  0.53031300  1
  C  1077  1  0.74424900  0.68734200  0.50520100  1
  C  1081  1  0.49543500  0.16291600  0.73835600  1
  C  1082  1  0.47003300  0.15281300  0.72789400  1
  C  1083  1  0.44453100  0.16265100  0.73836400  1
  C  1084  1  0.44471600  0.18293200  0.75977400  1
  C  1085  1  0.46981800  0.19422700  0.77138500  1
  C  1086  1  0.49504200  0.18318900  0.75977800  1
  C  1090  1  0.49631700  0.75305800  0.32051600  1
  C  1091  1  0.47094000  0.76296100  0.33125600  1
  C  1092  1  0.44539800  0.75310100  0.32090400  1
  C  1093  1  0.44550300  0.73296800  0.29935900  1
  C  1094  1  0.47056700  0.72183100  0.28751400  1
  C  1095  1  0.49582900  0.73293500  0.29896300  1
  C  1099  1  0.44436000  0.75235200  0.73896900  1
  C  1100  1  0.46980500  0.76255900  0.72868100  1
  C  1101  1  0.49530600  0.75287200  0.73934100  1
  C  1102  1  0.49504900  0.73268500  0.76083800  1
  C  1103  1  0.46992100  0.72112700  0.77212600  1
  C  1104  1  0.44472600  0.73198300  0.76029400  1
  C  1108  1  0.44424700  0.16253600  0.32092700  1
  C  1109  1  0.46959900  0.15279000  0.33187500  1
  C  1110  1  0.49517400  0.16275900  0.32169900  1
  C  1111  1  0.49511600  0.18293500  0.30018900  1
  C  1112  1  0.47008700  0.19384400  0.28806900  1
  C  1113  1  0.44479600  0.18254600  0.29926700  1
  C  1117  1  0.67928500  0.43187900  0.82492500  1
  C  1118  1  0.66884600  0.45734800  0.83492200  1
  C  1119  1  0.67941700  0.48282400  0.82509200  1
  C  1120  1  0.70089100  0.48253300  0.80488200  1
  C  1121  1  0.71238500  0.45738300  0.79358300  1
  C  1122  1  0.70072000  0.43221000  0.80466700  1
  C  1126  1  0.26127100  0.43155500  0.23504800  1
  C  1127  1  0.27206600  0.45697700  0.22532500  1
  C  1128  1  0.26183800  0.48248100  0.23542400  1
  C  1129  1  0.24042800  0.48227800  0.25570900  1
  C  1130  1  0.22845600  0.45717000  0.26659900  1
  C  1131  1  0.23972100  0.43195900  0.25518400  1
  C  1135  1  0.67848100  0.48301000  0.23495500  1
  C  1136  1  0.66802000  0.45755100  0.22500200  1
  C  1137  1  0.67859800  0.43210700  0.23487100  1
  C  1138  1  0.70011500  0.43241200  0.25503800  1
  C  1139  1  0.71172300  0.45758100  0.26618800  1
  C  1140  1  0.70000800  0.48273500  0.25511100  1
  C  1144  1  0.26064400  0.48377400  0.82549700  1
  C  1145  1  0.27144100  0.45836400  0.83524700  1
  C  1146  1  0.26123200  0.43285900  0.82514600  1
  C  1147  1  0.23981100  0.43304600  0.80487300  1
  C  1148  1  0.22782600  0.45815000  0.79398000  1
  C  1149  1  0.23909400  0.48336300  0.80537000  1
