# generated using pymatgen
data_H24C37N8
_symmetry_space_group_name_H-M   'P 1'
_cell_length_a   40.94970000
_cell_length_b   40.94970000
_cell_length_c   47.62580000
_cell_angle_alpha   90.00000000
_cell_angle_beta   90.00000000
_cell_angle_gamma   90.00000000
_symmetry_Int_Tables_number   1
_chemical_formula_structural   H24C37N8
_chemical_formula_sum   'H384 C592 N128'
_cell_volume   79862.65292288
_cell_formula_units_Z   16
loop_
 _symmetry_equiv_pos_site_id
 _symmetry_equiv_pos_as_xyz
  1  'x, y, z'
loop_
 _atom_site_type_symbol
 _atom_site_label
 _atom_site_symmetry_multiplicity
 _atom_site_fract_x
 _atom_site_fract_y
 _atom_site_fract_z
 _atom_site_occupancy
  H  26  1  0.22366300  0.10949200  0.18472500  1
  H  27  1  0.19274100  0.14103100  0.15264400  1
  H  28  1  0.14549600  0.04319400  0.19259300  1
  H  29  1  0.11442700  0.07475400  0.16027000  1
  H  30  1  0.06832600  0.11892600  0.15246400  1
  H  31  1  0.03722600  0.15041300  0.18441100  1
  H  32  1  0.11520700  0.21691500  0.19244300  1
  H  33  1  0.14647900  0.18535900  0.16025600  1
  H  34  1  0.11833100  0.19173400  0.10745200  1
  H  35  1  0.14943300  0.22328600  0.07529600  1
  H  36  1  0.21727500  0.14640100  0.06802300  1
  H  37  1  0.18644100  0.11493800  0.10041600  1
  H  38  1  0.14296500  0.06829300  0.10752800  1
  H  39  1  0.07476700  0.14498200  0.10023500  1
  H  40  1  0.04407800  0.11339900  0.06778900  1
  H  45  1  0.11204800  0.03666700  0.07529500  1
  H  71  1  0.53744300  0.15027700  0.68470600  1
  H  72  1  0.56837300  0.11871600  0.65265200  1
  H  73  1  0.61566800  0.21648800  0.69266800  1
  H  74  1  0.64674800  0.18490300  0.66036800  1
  H  75  1  0.69287300  0.14072000  0.65247400  1
  H  76  1  0.72395200  0.10924800  0.68444600  1
  H  77  1  0.64588100  0.04287500  0.69261400  1
  H  78  1  0.61463500  0.07441300  0.66040000  1
  H  79  1  0.64274000  0.06787100  0.60759700  1
  H  80  1  0.61161900  0.03632900  0.57544800  1
  H  81  1  0.54392900  0.11333000  0.56803400  1
  H  82  1  0.57478100  0.14477900  0.60042000  1
  H  83  1  0.61824700  0.19142700  0.60762400  1
  H  84  1  0.68633100  0.11464600  0.60025400  1
  H  85  1  0.71702200  0.14619600  0.56778600  1
  H  90  1  0.64916500  0.22301900  0.57537300  1
  H  116  1  0.03747500  0.60966600  0.57494000  1
  H  117  1  0.06838200  0.64119900  0.60704900  1
  H  118  1  0.11524100  0.54278800  0.56782000  1
  H  119  1  0.14629200  0.57435400  0.60014300  1
  H  120  1  0.19222600  0.61861800  0.60720200  1
  H  121  1  0.22329100  0.65009600  0.57521100  1
  H  122  1  0.14570500  0.71717300  0.56794800  1
  H  123  1  0.11446800  0.68561500  0.60015300  1
  H  124  1  0.14275100  0.69137600  0.65299400  1
  H  125  1  0.11167100  0.72291200  0.68518700  1
  H  126  1  0.04325400  0.64644700  0.69172300  1
  H  127  1  0.07408000  0.61500600  0.65931900  1
  H  128  1  0.11766300  0.56852200  0.65293800  1
  H  129  1  0.18642500  0.64479200  0.65945900  1
  H  130  1  0.21712300  0.61325500  0.69191900  1
  H  135  1  0.14857700  0.53693500  0.68521000  1
  H  161  1  0.72343700  0.65031600  0.07552700  1
  H  162  1  0.69248400  0.61876500  0.10757300  1
  H  163  1  0.64522600  0.71653800  0.06753000  1
  H  164  1  0.61412700  0.68496300  0.09982100  1
  H  165  1  0.56798500  0.64078200  0.10772600  1
  H  166  1  0.53690100  0.60930400  0.07576400  1
  H  167  1  0.61496500  0.54292000  0.06760200  1
  H  168  1  0.64622000  0.57446400  0.09980800  1
  H  169  1  0.61808300  0.56794400  0.15258700  1
  H  170  1  0.64918500  0.53637300  0.18473000  1
  H  171  1  0.71689700  0.61334800  0.19219400  1
  H  172  1  0.68606700  0.64482800  0.15980900  1
  H  173  1  0.64260900  0.69149300  0.15257600  1
  H  174  1  0.57451300  0.61472100  0.15994200  1
  H  175  1  0.54381700  0.64628100  0.19240100  1
  H  180  1  0.61168300  0.72309500  0.18481500  1
  H  206  1  0.86157300  0.47273200  0.32466600  1
  H  207  1  0.89267700  0.44116900  0.35682900  1
  H  208  1  0.79301800  0.39636700  0.31829200  1
  H  209  1  0.82386500  0.36490400  0.35065800  1
  H  210  1  0.86750700  0.31851100  0.35677700  1
  H  211  1  0.89848900  0.28698200  0.32450500  1
  H  212  1  0.96723400  0.36317500  0.31823900  1
  H  213  1  0.93646000  0.39465500  0.35068600  1
  H  214  1  0.94198100  0.36849900  0.40293900  1
  H  215  1  0.97289200  0.40003300  0.43505200  1
  H  216  1  0.89525800  0.46709300  0.44194500  1
  H  217  1  0.86420000  0.43552500  0.40962800  1
  H  218  1  0.81834100  0.39118800  0.40293700  1
  H  219  1  0.89600300  0.32402200  0.40959500  1
  H  220  1  0.86485500  0.29244200  0.44184000  1
  H  225  1  0.78736700  0.35969300  0.43498400  1
  H  251  1  0.89929000  0.78666600  0.82509800  1
  H  252  1  0.86826100  0.81823400  0.85730400  1
  H  253  1  0.96750500  0.86326500  0.81818200  1
  H  254  1  0.93673800  0.89473800  0.85060800  1
  H  255  1  0.89325000  0.94125800  0.85725300  1
  H  256  1  0.86230500  0.97283400  0.82500000  1
  H  257  1  0.79386500  0.89643000  0.81821600  1
  H  258  1  0.82459800  0.86490100  0.85066200  1
  H  259  1  0.81870000  0.89098200  0.90290700  1
  H  260  1  0.78775300  0.85948000  0.93500700  1
  H  261  1  0.86561400  0.79275900  0.94243200  1
  H  262  1  0.89670300  0.82428500  0.91010500  1
  H  263  1  0.94271100  0.86852700  0.90286900  1
  H  264  1  0.86482500  0.93535800  0.91007300  1
  H  265  1  0.89603700  0.96691900  0.94229300  1
  H  270  1  0.97375200  0.90001000  0.93486900  1
  H  296  1  0.36157100  0.28676700  0.93502800  1
  H  297  1  0.39263100  0.31833700  0.90284800  1
  H  298  1  0.29335500  0.36337100  0.94191100  1
  H  299  1  0.32415400  0.39484600  0.90950800  1
  H  300  1  0.36765600  0.44136400  0.90287100  1
  H  301  1  0.39859400  0.47293400  0.93513700  1
  H  302  1  0.46702200  0.39652100  0.94193600  1
  H  303  1  0.43630200  0.36499700  0.90947900  1
  H  304  1  0.44222600  0.39106300  0.85723400  1
  H  305  1  0.47317600  0.35953700  0.82515300  1
  H  306  1  0.39531200  0.29281300  0.81775400  1
  H  307  1  0.36421800  0.32436700  0.85006200  1
  H  308  1  0.31821300  0.36860600  0.85725900  1
  H  309  1  0.39609900  0.43544200  0.85005700  1
  H  310  1  0.36488500  0.46699800  0.81783100  1
  H  315  1  0.28717500  0.40008600  0.82525200  1
  H  341  1  0.39932900  0.97295100  0.43530800  1
  H  342  1  0.36823800  0.94141400  0.40312200  1
  H  343  1  0.46752800  0.89632000  0.44209800  1
  H  344  1  0.43669500  0.86488400  0.40969800  1
  H  345  1  0.39312700  0.81842000  0.40314000  1
  H  346  1  0.36212300  0.78687100  0.43537700  1
  H  347  1  0.29370900  0.86331400  0.44206700  1
  H  348  1  0.32449800  0.89481300  0.40964100  1
  H  349  1  0.31865200  0.86872800  0.35738800  1
  H  350  1  0.28775800  0.90026400  0.32527500  1
  H  351  1  0.36562500  0.96700200  0.31800800  1
  H  352  1  0.39666800  0.93543400  0.35033700  1
  H  353  1  0.44261200  0.89113600  0.35743800  1
  H  354  1  0.36471400  0.82430200  0.35033100  1
  H  355  1  0.39588100  0.79272700  0.31809200  1
  H  360  1  0.47360600  0.85964100  0.32541200  1
  H  367  1  0.96728300  0.04292500  0.02311800  1
  H  368  1  0.04570400  0.96693800  0.98628200  1
  H  370  1  0.01284200  0.06817000  0.05022000  1
  H  372  1  0.00073900  0.94292600  0.95800700  1
  H  379  1  0.79379200  0.21653100  0.52290900  1
  H  380  1  0.71541000  0.29274000  0.48635800  1
  H  382  1  0.74826000  0.19132000  0.55007500  1
  H  384  1  0.76032400  0.31670100  0.45799700  1
  H  391  1  0.29367300  0.54286700  0.73686700  1
  H  392  1  0.21520400  0.46705900  0.77389500  1
  H  394  1  0.24813400  0.56807100  0.70972800  1
  H  396  1  0.26018300  0.44302000  0.80213600  1
  H  403  1  0.46703900  0.71666300  0.23723300  1
  H  404  1  0.54545800  0.79278600  0.27386200  1
  H  406  1  0.51257100  0.69143200  0.21007900  1
  H  408  1  0.50054900  0.81673900  0.30223300  1
  H  415  1  0.21700200  0.79294400  0.48692300  1
  H  416  1  0.29539900  0.71713700  0.52406400  1
  H  418  1  0.26260800  0.81816600  0.45986400  1
  H  420  1  0.25037300  0.69312200  0.55226500  1
  H  427  1  0.71684400  0.46480500  0.27167400  1
  H  428  1  0.79345200  0.54474200  0.23837300  1
  H  430  1  0.76225100  0.44069200  0.29953900  1
  H  432  1  0.74799600  0.56894700  0.21060600  1
  H  439  1  0.54547500  0.29025200  0.77574700  1
  H  440  1  0.46533700  0.21942900  0.73432600  1
  H  442  1  0.50032900  0.31541900  0.80319600  1
  H  444  1  0.51045800  0.19432800  0.70681800  1
  H  451  1  0.96517000  0.54041000  0.52554500  1
  H  452  1  0.04525600  0.46933200  0.48436900  1
  H  454  1  0.01029200  0.56549400  0.55307600  1
  H  456  1  0.00012800  0.44422800  0.45685500  1
  H  463  1  0.79557900  0.71948100  0.02594500  1
  H  464  1  0.71543500  0.79018000  0.98438000  1
  H  466  1  0.75044800  0.69440400  0.05345700  1
  H  468  1  0.76059200  0.81534300  0.95693900  1
  H  475  1  0.29573400  0.04040400  0.23449200  1
  H  476  1  0.21554600  0.96952000  0.27576600  1
  H  478  1  0.25064900  0.06549400  0.20692400  1
  H  480  1  0.26064000  0.94439600  0.30331000  1
  H  487  1  0.21707300  0.29484300  0.98837100  1
  H  488  1  0.29373900  0.21497000  0.02169300  1
  H  490  1  0.26246600  0.31897500  0.96049500  1
  H  492  1  0.24831200  0.19078100  0.04951000  1
  H  499  1  0.71721700  0.96693400  0.77341200  1
  H  500  1  0.79579200  0.04238200  0.73601200  1
  H  502  1  0.76278500  0.94165400  0.80047900  1
  H  504  1  0.75081500  0.06639800  0.70775400  1
  H  511  1  0.46734900  0.04481800  0.52179200  1
  H  512  1  0.54386800  0.96473300  0.48859400  1
  H  514  1  0.51281700  0.06898000  0.54957100  1
  H  516  1  0.49844400  0.94065700  0.46072100  1
  H  523  1  0.96701700  0.71504100  0.73822300  1
  H  524  1  0.04383500  0.79456800  0.77189400  1
  H  526  1  0.01243300  0.69082400  0.71042100  1
  H  528  1  0.99841600  0.81879600  0.79968400  1
  H  535  1  0.04381900  0.29272300  0.27335400  1
  H  536  1  0.96526600  0.21739400  0.23574000  1
  H  538  1  0.99821600  0.31798300  0.30038700  1
  H  540  1  0.01029800  0.19333600  0.20757800  1
  H  547  1  0.46508300  0.54249300  0.02412300  1
  H  548  1  0.54364800  0.46697800  0.98680700  1
  H  550  1  0.51004800  0.56650000  0.05239700  1
  H  552  1  0.49809500  0.44173300  0.95969800  1
  H  578  1  0.22366300  0.10949200  0.37369800  1
  H  579  1  0.19274100  0.14103100  0.34161700  1
  H  580  1  0.14549600  0.04319400  0.38156600  1
  H  581  1  0.11442700  0.07475400  0.34924300  1
  H  582  1  0.06832600  0.11892600  0.34143700  1
  H  583  1  0.03722600  0.15041300  0.37338400  1
  H  584  1  0.11520700  0.21691500  0.38141600  1
  H  585  1  0.14647900  0.18535900  0.34922900  1
  H  586  1  0.11833100  0.19173400  0.29642500  1
  H  587  1  0.14943300  0.22328600  0.26426900  1
  H  588  1  0.21727500  0.14640100  0.25699600  1
  H  589  1  0.18644100  0.11493800  0.28938900  1
  H  590  1  0.14296500  0.06829300  0.29650100  1
  H  591  1  0.07476700  0.14498200  0.28920800  1
  H  592  1  0.04407800  0.11339900  0.25676200  1
  H  597  1  0.11204800  0.03666700  0.26426800  1
  H  623  1  0.53744300  0.15027700  0.87367900  1
  H  624  1  0.56837300  0.11871600  0.84162500  1
  H  625  1  0.61566800  0.21648800  0.88164100  1
  H  626  1  0.64674800  0.18490300  0.84934100  1
  H  627  1  0.69287300  0.14072000  0.84144700  1
  H  628  1  0.72395200  0.10924800  0.87341900  1
  H  629  1  0.64588100  0.04287500  0.88158700  1
  H  630  1  0.61463500  0.07441300  0.84937300  1
  H  631  1  0.64274000  0.06787100  0.79657000  1
  H  632  1  0.61161900  0.03632900  0.76442100  1
  H  633  1  0.54392900  0.11333000  0.75700700  1
  H  634  1  0.57478100  0.14477900  0.78939300  1
  H  635  1  0.61824700  0.19142700  0.79659700  1
  H  636  1  0.68633100  0.11464600  0.78922700  1
  H  637  1  0.71702200  0.14619600  0.75675900  1
  H  642  1  0.64916500  0.22301900  0.76434600  1
  H  668  1  0.03747500  0.60966600  0.76391300  1
  H  669  1  0.06838200  0.64119900  0.79602200  1
  H  670  1  0.11524100  0.54278800  0.75679300  1
  H  671  1  0.14629200  0.57435400  0.78911600  1
  H  672  1  0.19222600  0.61861800  0.79617500  1
  H  673  1  0.22329100  0.65009600  0.76418400  1
  H  674  1  0.14570500  0.71717300  0.75692100  1
  H  675  1  0.11446800  0.68561500  0.78912600  1
  H  676  1  0.14275100  0.69137600  0.84196700  1
  H  677  1  0.11167100  0.72291200  0.87416000  1
  H  678  1  0.04325400  0.64644700  0.88069600  1
  H  679  1  0.07408000  0.61500600  0.84829200  1
  H  680  1  0.11766300  0.56852200  0.84191100  1
  H  681  1  0.18642500  0.64479200  0.84843200  1
  H  682  1  0.21712300  0.61325500  0.88089200  1
  H  687  1  0.14857700  0.53693500  0.87418300  1
  H  713  1  0.72343700  0.65031600  0.26450000  1
  H  714  1  0.69248400  0.61876500  0.29654600  1
  H  715  1  0.64522600  0.71653800  0.25650300  1
  H  716  1  0.61412700  0.68496300  0.28879400  1
  H  717  1  0.56798500  0.64078200  0.29669900  1
  H  718  1  0.53690100  0.60930400  0.26473700  1
  H  719  1  0.61496500  0.54292000  0.25657500  1
  H  720  1  0.64622000  0.57446400  0.28878100  1
  H  721  1  0.61808300  0.56794400  0.34156000  1
  H  722  1  0.64918500  0.53637300  0.37370300  1
  H  723  1  0.71689700  0.61334800  0.38116700  1
  H  724  1  0.68606700  0.64482800  0.34878200  1
  H  725  1  0.64260900  0.69149300  0.34154900  1
  H  726  1  0.57451300  0.61472100  0.34891500  1
  H  727  1  0.54381700  0.64628100  0.38137400  1
  H  732  1  0.61168300  0.72309500  0.37378800  1
  H  758  1  0.86157300  0.47273200  0.51363900  1
  H  759  1  0.89267700  0.44116900  0.54580200  1
  H  760  1  0.79301800  0.39636700  0.50726500  1
  H  761  1  0.82386500  0.36490400  0.53963100  1
  H  762  1  0.86750700  0.31851100  0.54575000  1
  H  763  1  0.89848900  0.28698200  0.51347800  1
  H  764  1  0.96723400  0.36317500  0.50721200  1
  H  765  1  0.93646000  0.39465500  0.53965900  1
  H  766  1  0.94198100  0.36849900  0.59191200  1
  H  767  1  0.97289200  0.40003300  0.62402500  1
  H  768  1  0.89525800  0.46709300  0.63091800  1
  H  769  1  0.86420000  0.43552500  0.59860100  1
  H  770  1  0.81834100  0.39118800  0.59191000  1
  H  771  1  0.89600300  0.32402200  0.59856800  1
  H  772  1  0.86485500  0.29244200  0.63081300  1
  H  777  1  0.78736700  0.35969300  0.62395700  1
  H  803  1  0.89929000  0.78666600  0.01407120  1
  H  804  1  0.86826100  0.81823400  0.04627720  1
  H  805  1  0.96750500  0.86326500  0.00715520  1
  H  806  1  0.93673800  0.89473800  0.03958120  1
  H  807  1  0.89325000  0.94125800  0.04622620  1
  H  808  1  0.86230500  0.97283400  0.01397320  1
  H  809  1  0.79386500  0.89643000  0.00718920  1
  H  810  1  0.82459800  0.86490100  0.03963520  1
  H  811  1  0.81870000  0.89098200  0.09188020  1
  H  812  1  0.78775300  0.85948000  0.12398000  1
  H  813  1  0.86561400  0.79275900  0.13140500  1
  H  814  1  0.89670300  0.82428500  0.09907820  1
  H  815  1  0.94271100  0.86852700  0.09184220  1
  H  816  1  0.86482500  0.93535800  0.09904620  1
  H  817  1  0.89603700  0.96691900  0.13126600  1
  H  822  1  0.97375200  0.90001000  0.12384200  1
  H  848  1  0.36157100  0.28676700  0.12400100  1
  H  849  1  0.39263100  0.31833700  0.09182120  1
  H  850  1  0.29335500  0.36337100  0.13088400  1
  H  851  1  0.32415400  0.39484600  0.09848120  1
  H  852  1  0.36765600  0.44136400  0.09184420  1
  H  853  1  0.39859400  0.47293400  0.12411000  1
  H  854  1  0.46702200  0.39652100  0.13090900  1
  H  855  1  0.43630200  0.36499700  0.09845220  1
  H  856  1  0.44222600  0.39106300  0.04620720  1
  H  857  1  0.47317600  0.35953700  0.01412620  1
  H  858  1  0.39531200  0.29281300  0.00672720  1
  H  859  1  0.36421800  0.32436700  0.03903520  1
  H  860  1  0.31821300  0.36860600  0.04623220  1
  H  861  1  0.39609900  0.43544200  0.03903020  1
  H  862  1  0.36488500  0.46699800  0.00680420  1
  H  867  1  0.28717500  0.40008600  0.01422520  1
  H  893  1  0.39932900  0.97295100  0.62428100  1
  H  894  1  0.36823800  0.94141400  0.59209500  1
  H  895  1  0.46752800  0.89632000  0.63107100  1
  H  896  1  0.43669500  0.86488400  0.59867100  1
  H  897  1  0.39312700  0.81842000  0.59211300  1
  H  898  1  0.36212300  0.78687100  0.62435000  1
  H  899  1  0.29370900  0.86331400  0.63104000  1
  H  900  1  0.32449800  0.89481300  0.59861400  1
  H  901  1  0.31865200  0.86872800  0.54636100  1
  H  902  1  0.28775800  0.90026400  0.51424800  1
  H  903  1  0.36562500  0.96700200  0.50698100  1
  H  904  1  0.39666800  0.93543400  0.53931000  1
  H  905  1  0.44261200  0.89113600  0.54641100  1
  H  906  1  0.36471400  0.82430200  0.53930400  1
  H  907  1  0.39588100  0.79272700  0.50706500  1
  H  912  1  0.47360600  0.85964100  0.51438500  1
  H  919  1  0.96728300  0.04292500  0.21209100  1
  H  920  1  0.04570400  0.96693800  0.17525500  1
  H  922  1  0.01284200  0.06817000  0.23919300  1
  H  924  1  0.00073900  0.94292600  0.14698000  1
  H  931  1  0.79379200  0.21653100  0.71188200  1
  H  932  1  0.71541000  0.29274000  0.67533100  1
  H  934  1  0.74826000  0.19132000  0.73904800  1
  H  936  1  0.76032400  0.31670100  0.64697000  1
  H  943  1  0.29367300  0.54286700  0.92584000  1
  H  944  1  0.21520400  0.46705900  0.96286800  1
  H  946  1  0.24813400  0.56807100  0.89870100  1
  H  948  1  0.26018300  0.44302000  0.99110900  1
  H  955  1  0.46703900  0.71666300  0.42620600  1
  H  956  1  0.54545800  0.79278600  0.46283500  1
  H  958  1  0.51257100  0.69143200  0.39905200  1
  H  960  1  0.50054900  0.81673900  0.49120600  1
  H  967  1  0.21700200  0.79294400  0.67589600  1
  H  968  1  0.29539900  0.71713700  0.71303700  1
  H  970  1  0.26260800  0.81816600  0.64883700  1
  H  972  1  0.25037300  0.69312200  0.74123800  1
  H  979  1  0.71684400  0.46480500  0.46064700  1
  H  980  1  0.79345200  0.54474200  0.42734600  1
  H  982  1  0.76225100  0.44069200  0.48851200  1
  H  984  1  0.74799600  0.56894700  0.39957900  1
  H  991  1  0.54547500  0.29025200  0.96472000  1
  H  992  1  0.46533700  0.21942900  0.92329900  1
  H  994  1  0.50032900  0.31541900  0.99216900  1
  H  996  1  0.51045800  0.19432800  0.89579100  1
  H  1003  1  0.96517000  0.54041000  0.71451800  1
  H  1004  1  0.04525600  0.46933200  0.67334200  1
  H  1006  1  0.01029200  0.56549400  0.74204900  1
  H  1008  1  0.00012800  0.44422800  0.64582800  1
  H  1015  1  0.79557900  0.71948100  0.21491800  1
  H  1016  1  0.71543500  0.79018000  0.17335300  1
  H  1018  1  0.75044800  0.69440400  0.24243000  1
  H  1020  1  0.76059200  0.81534300  0.14591200  1
  H  1027  1  0.29573400  0.04040400  0.42346500  1
  H  1028  1  0.21554600  0.96952000  0.46473900  1
  H  1030  1  0.25064900  0.06549400  0.39589700  1
  H  1032  1  0.26064000  0.94439600  0.49228300  1
  H  1039  1  0.21707300  0.29484300  0.17734400  1
  H  1040  1  0.29373900  0.21497000  0.21066600  1
  H  1042  1  0.26246600  0.31897500  0.14946800  1
  H  1044  1  0.24831200  0.19078100  0.23848300  1
  H  1051  1  0.71721700  0.96693400  0.96238500  1
  H  1052  1  0.79579200  0.04238200  0.92498500  1
  H  1054  1  0.76278500  0.94165400  0.98945200  1
  H  1056  1  0.75081500  0.06639800  0.89672700  1
  H  1063  1  0.46734900  0.04481800  0.71076500  1
  H  1064  1  0.54386800  0.96473300  0.67756700  1
  H  1066  1  0.51281700  0.06898000  0.73854400  1
  H  1068  1  0.49844400  0.94065700  0.64969400  1
  H  1075  1  0.96701700  0.71504100  0.92719600  1
  H  1076  1  0.04383500  0.79456800  0.96086700  1
  H  1078  1  0.01243300  0.69082400  0.89939400  1
  H  1080  1  0.99841600  0.81879600  0.98865700  1
  H  1087  1  0.04381900  0.29272300  0.46232700  1
  H  1088  1  0.96526600  0.21739400  0.42471300  1
  H  1090  1  0.99821600  0.31798300  0.48936000  1
  H  1092  1  0.01029800  0.19333600  0.39655100  1
  H  1099  1  0.46508300  0.54249300  0.21309600  1
  H  1100  1  0.54364800  0.46697800  0.17578000  1
  H  1102  1  0.51004800  0.56650000  0.24137000  1
  H  1104  1  0.49809500  0.44173300  0.14867100  1
  C  1  1  0.07424900  0.07126800  0.06936300  1
  C  2  1  0.06439300  0.10322300  0.07666300  1
  C  3  1  0.08266500  0.12184900  0.09590800  1
  C  4  1  0.11080500  0.10915300  0.10958300  1
  C  5  1  0.12159100  0.07797000  0.10025200  1
  C  6  1  0.10358100  0.05928100  0.08087200  1
  C  7  1  0.13055900  0.13000900  0.13019000  1
  C  8  1  0.15041600  0.15082600  0.10962800  1
  C  9  1  0.17858200  0.13807100  0.09603500  1
  C  10  1  0.19693300  0.15662900  0.07680100  1
  C  11  1  0.18717000  0.18859900  0.06944400  1
  C  12  1  0.15783200  0.20065400  0.08089600  1
  C  13  1  0.13971500  0.18201400  0.10024000  1
  C  14  1  0.10994900  0.15006800  0.15075700  1
  C  15  1  0.15106700  0.10996600  0.15084500  1
  C  16  1  0.18259600  0.11989600  0.15995000  1
  C  17  1  0.20096500  0.10137300  0.17920100  1
  C  18  1  0.18812900  0.07241100  0.19097600  1
  C  19  1  0.15593400  0.06352800  0.18387800  1
  C  20  1  0.13771500  0.08218100  0.16462000  1
  C  21  1  0.07840600  0.14008600  0.15978400  1
  C  22  1  0.05992800  0.15858700  0.17897000  1
  C  23  1  0.07265600  0.18758200  0.19077700  1
  C  24  1  0.10484700  0.19654300  0.18372700  1
  C  25  1  0.12318700  0.17789600  0.16454500  1
  C  46  1  0.68690000  0.18836100  0.56938400  1
  C  47  1  0.69672400  0.15639100  0.57667000  1
  C  48  1  0.67844800  0.13778500  0.59592900  1
  C  49  1  0.65034500  0.15051600  0.60963500  1
  C  50  1  0.63959500  0.18172000  0.60032700  1
  C  51  1  0.65760500  0.20038800  0.58093300  1
  C  52  1  0.63058900  0.12967500  0.63025200  1
  C  53  1  0.61072800  0.10883800  0.60970900  1
  C  54  1  0.58261500  0.12163400  0.59605900  1
  C  55  1  0.56423900  0.10307500  0.57684200  1
  C  56  1  0.57396100  0.07108300  0.56951600  1
  C  57  1  0.60325500  0.05898500  0.58101700  1
  C  58  1  0.62138200  0.07762100  0.60035700  1
  C  59  1  0.65121200  0.10962600  0.65081700  1
  C  60  1  0.61008800  0.14973400  0.65089900  1
  C  61  1  0.57853200  0.13983900  0.65996900  1
  C  62  1  0.56015100  0.15838200  0.67919900  1
  C  63  1  0.57300600  0.18732000  0.69100100  1
  C  64  1  0.60521900  0.19617100  0.68393500  1
  C  65  1  0.62344600  0.17749900  0.66469600  1
  C  66  1  0.68277000  0.11958500  0.65982500  1
  C  67  1  0.70123400  0.10109500  0.67902600  1
  C  68  1  0.68847700  0.07213700  0.69087900  1
  C  69  1  0.65626900  0.06321200  0.68386000  1
  C  70  1  0.63794200  0.08184900  0.66466000  1
  C  91  1  0.18664300  0.57132800  0.69076400  1
  C  92  1  0.19667600  0.60314800  0.68321300  1
  C  93  1  0.17839300  0.62175100  0.66395900  1
  C  94  1  0.15008800  0.60913600  0.65048100  1
  C  95  1  0.13914100  0.57811500  0.66007200  1
  C  96  1  0.15715500  0.55945000  0.67946700  1
  C  97  1  0.13028400  0.62994200  0.62987900  1
  C  98  1  0.11039200  0.65072100  0.65043700  1
  C  99  1  0.08206600  0.63805700  0.66384600  1
  C  100  1  0.06372000  0.65659900  0.68309600  1
  C  101  1  0.07365600  0.68844800  0.69067100  1
  C  102  1  0.10315200  0.70037700  0.67942700  1
  C  103  1  0.12126400  0.68174700  0.66007200  1
  C  104  1  0.15084400  0.65004200  0.60931200  1
  C  105  1  0.10981200  0.60984900  0.60924100  1
  C  106  1  0.07843300  0.61995100  0.59988900  1
  C  107  1  0.06006700  0.60141700  0.58064300  1
  C  108  1  0.07278400  0.57228600  0.56908800  1
  C  109  1  0.10487300  0.56324000  0.57639100  1
  C  110  1  0.12307800  0.58189700  0.59565600  1
  C  111  1  0.18223100  0.63988600  0.60002500  1
  C  112  1  0.20068800  0.65838600  0.58082300  1
  C  113  1  0.18807600  0.68755400  0.56924400  1
  C  114  1  0.15599800  0.69668000  0.57651500  1
  C  115  1  0.13768200  0.67803300  0.59571400  1
  C  136  1  0.57393900  0.68844500  0.19079500  1
  C  137  1  0.56411900  0.65647200  0.18352000  1
  C  138  1  0.58238800  0.63786400  0.16425900  1
  C  139  1  0.61050100  0.65058900  0.15055800  1
  C  140  1  0.62125300  0.68179100  0.15986700  1
  C  141  1  0.60324100  0.70046500  0.17925600  1
  C  142  1  0.63025900  0.62973900  0.12994900  1
  C  143  1  0.65010600  0.60890600  0.15050900  1
  C  144  1  0.67823000  0.62167800  0.16415400  1
  C  145  1  0.69658200  0.60310900  0.18338000  1
  C  146  1  0.68685100  0.57111300  0.19068200  1
  C  147  1  0.65755600  0.55903000  0.17917200  1
  C  148  1  0.63943900  0.57768200  0.15983600  1
  C  149  1  0.60965300  0.60969500  0.10936800  1
  C  150  1  0.65078000  0.64979500  0.10931300  1
  C  151  1  0.68233500  0.63989100  0.10025300  1
  C  152  1  0.70072900  0.65842600  0.08102800  1
  C  153  1  0.68789100  0.68737300  0.06923000  1
  C  154  1  0.65567100  0.69622600  0.07627300  1
  C  155  1  0.63743100  0.67755900  0.09550700  1
  C  156  1  0.57808800  0.61964900  0.10037600  1
  C  157  1  0.55962100  0.60115500  0.08117300  1
  C  158  1  0.57237400  0.57219000  0.06933300  1
  C  159  1  0.60458400  0.56326500  0.07635000  1
  C  160  1  0.62292100  0.58191500  0.09553200  1
  C  181  1  0.82254200  0.32215200  0.44076100  1
  C  182  1  0.85456400  0.31298200  0.43335700  1
  C  183  1  0.87283000  0.33164600  0.41413200  1
  C  184  1  0.85965300  0.35969500  0.40063800  1
  C  185  1  0.82833200  0.36989100  0.41005300  1
  C  186  1  0.80993400  0.35137800  0.42928600  1
  C  187  1  0.88014900  0.37981000  0.38003100  1
  C  188  1  0.90062800  0.39993500  0.40064000  1
  C  189  1  0.88738700  0.42793800  0.41416200  1
  C  190  1  0.90560000  0.44660200  0.43342200  1
  C  191  1  0.93765100  0.43750100  0.44078800  1
  C  192  1  0.95032800  0.40831400  0.42930300  1
  C  193  1  0.93196400  0.38978300  0.41005300  1
  C  194  1  0.90001500  0.35903400  0.35945200  1
  C  195  1  0.86026800  0.40055800  0.35943700  1
  C  196  1  0.87117000  0.43156400  0.34977400  1
  C  197  1  0.85303800  0.45020900  0.33044200  1
  C  198  1  0.82349600  0.43831600  0.31925300  1
  C  199  1  0.81352600  0.40649200  0.32686900  1
  C  200  1  0.83189500  0.38792500  0.34608700  1
  C  201  1  0.88903600  0.32808100  0.34973500  1
  C  202  1  0.90709400  0.30945300  0.33034600  1
  C  203  1  0.93665500  0.32131200  0.31917500  1
  C  204  1  0.94672600  0.35308000  0.32685000  1
  C  205  1  0.92841100  0.37164200  0.34611300  1
  C  226  1  0.93846000  0.93737800  0.94093500  1
  C  227  1  0.90635700  0.94645200  0.93370100  1
  C  228  1  0.88804900  0.92779800  0.91450100  1
  C  229  1  0.90125300  0.89986100  0.90085300  1
  C  230  1  0.93267700  0.88975800  0.91008800  1
  C  231  1  0.95111900  0.90825900  0.92929800  1
  C  232  1  0.88070800  0.87978500  0.88025300  1
  C  233  1  0.86019300  0.85969700  0.90086400  1
  C  234  1  0.87346300  0.83179900  0.91452700  1
  C  235  1  0.85523300  0.81316400  0.93379400  1
  C  236  1  0.82311800  0.82218500  0.94102100  1
  C  237  1  0.81037300  0.85125000  0.92936500  1
  C  238  1  0.82876400  0.86976300  0.91011900  1
  C  239  1  0.86087200  0.90060300  0.85968700  1
  C  240  1  0.90053300  0.85897400  0.85966600  1
  C  241  1  0.88969700  0.82789000  0.85013900  1
  C  242  1  0.90777800  0.80923800  0.83077800  1
  C  243  1  0.93719500  0.82120600  0.81941200  1
  C  244  1  0.94709500  0.85309600  0.82688900  1
  C  245  1  0.92877900  0.87166100  0.84614600  1
  C  246  1  0.87178000  0.93164900  0.85012000  1
  C  247  1  0.85374800  0.95030600  0.83073400  1
  C  248  1  0.82427300  0.93840600  0.81942900  1
  C  249  1  0.81429300  0.90655500  0.82693800  1
  C  250  1  0.83258800  0.88796300  0.84619200  1
  C  271  1  0.32246700  0.43745400  0.81918800  1
  C  272  1  0.35456500  0.44653600  0.82642700  1
  C  273  1  0.37286800  0.42789100  0.84564000  1
  C  274  1  0.35967100  0.39993700  0.85926500  1
  C  275  1  0.32824200  0.38983700  0.85004100  1
  C  276  1  0.30980200  0.40833800  0.83082800  1
  C  277  1  0.38020600  0.37987400  0.87988400  1
  C  278  1  0.40073100  0.35978300  0.85928400  1
  C  279  1  0.38745900  0.33187800  0.84563300  1
  C  280  1  0.40568800  0.31323100  0.82637900  1
  C  281  1  0.43780600  0.32224700  0.81914600  1
  C  282  1  0.45054800  0.35132400  0.83078400  1
  C  283  1  0.43216200  0.36984200  0.85002800  1
  C  284  1  0.40003000  0.40070700  0.90045000  1
  C  285  1  0.36036900  0.35908700  0.90048200  1
  C  286  1  0.37119200  0.32799500  0.91000200  1
  C  287  1  0.35309200  0.30934100  0.92934800  1
  C  288  1  0.32365600  0.32130400  0.94068700  1
  C  289  1  0.31377600  0.35320200  0.93321600  1
  C  290  1  0.33210800  0.37177100  0.91397700  1
  C  291  1  0.38912400  0.43175500  0.91000800  1
  C  292  1  0.40715100  0.45040700  0.92940100  1
  C  293  1  0.43661400  0.43849700  0.94072300  1
  C  294  1  0.44660000  0.40665100  0.93320600  1
  C  295  1  0.42831400  0.38806400  0.91394300  1
  C  316  1  0.43830600  0.82226800  0.31939800  1
  C  317  1  0.40621300  0.81319600  0.32666700  1
  C  318  1  0.38793200  0.83185800  0.34588200  1
  C  319  1  0.40115800  0.85980400  0.35950400  1
  C  320  1  0.43256800  0.86990200  0.35023400  1
  C  321  1  0.45098100  0.85139400  0.33100700  1
  C  322  1  0.38063300  0.87989300  0.38010900  1
  C  323  1  0.36014000  0.90000800  0.35950200  1
  C  324  1  0.37343900  0.92791700  0.34587500  1
  C  325  1  0.35523400  0.94658200  0.32661500  1
  C  326  1  0.32312600  0.93757100  0.31934100  1
  C  327  1  0.31037100  0.90848100  0.33094600  1
  C  328  1  0.32872800  0.88995100  0.35020300  1
  C  329  1  0.36077500  0.85908900  0.40067300  1
  C  330  1  0.40048900  0.90066700  0.40070100  1
  C  331  1  0.38967800  0.93174600  0.41026000  1
  C  332  1  0.40780100  0.95037900  0.42960700  1
  C  333  1  0.43723900  0.93839900  0.44092200  1
  C  334  1  0.44711000  0.90650800  0.43341600  1
  C  335  1  0.42874400  0.88795400  0.41418900  1
  C  336  1  0.37165400  0.82804400  0.41025600  1
  C  337  1  0.35358800  0.80940400  0.42963000  1
  C  338  1  0.32411500  0.82133000  0.44091600  1
  C  339  1  0.31414700  0.85317400  0.43337200  1
  C  340  1  0.33247400  0.87174800  0.41412800  1
  C  361  1  0.98430400  0.02695400  0.01551000  1
  C  363  1  0.99557600  0.98126600  0.98554700  1
  C  364  1  0.02865800  0.98286500  0.99392100  1
  C  366  1  0.01739100  0.02855800  0.02386800  1
  C  369  1  0.02852100  0.05179300  0.04275100  1
  C  371  1  0.98462800  0.95819400  0.96643800  1
  C  373  1  0.77678100  0.23254900  0.51536100  1
  C  375  1  0.76550300  0.27830300  0.48547400  1
  C  376  1  0.73244800  0.27676400  0.49393100  1
  C  378  1  0.74372000  0.23100600  0.52380400  1
  C  381  1  0.73260400  0.20777200  0.54269500  1
  C  383  1  0.77643100  0.30138500  0.46636400  1
  C  385  1  0.27664200  0.52693200  0.74451600  1
  C  387  1  0.26535000  0.48132000  0.77455900  1
  C  388  1  0.23226000  0.48294700  0.76621600  1
  C  390  1  0.24354600  0.52856400  0.73618900  1
  C  393  1  0.23242400  0.55177500  0.71728100  1
  C  395  1  0.27629500  0.45827500  0.79369300  1
  C  397  1  0.48405800  0.73266300  0.24479800  1
  C  399  1  0.49535200  0.77839000  0.27471200  1
  C  400  1  0.52841200  0.77682900  0.26627100  1
  C  402  1  0.51712300  0.73110000  0.23637200  1
  C  405  1  0.52823400  0.70786900  0.21747400  1
  C  407  1  0.48442900  0.80146500  0.29382800  1
  C  409  1  0.23401700  0.77701000  0.49459700  1
  C  411  1  0.24525000  0.73140300  0.52466100  1
  C  412  1  0.27835600  0.73302700  0.51636300  1
  C  414  1  0.26712800  0.77863900  0.48631400  1
  C  417  1  0.27829000  0.80184600  0.46741600  1
  C  419  1  0.23427300  0.70836000  0.54378300  1
  C  421  1  0.73349600  0.48159600  0.26480400  1
  C  423  1  0.74392600  0.52864900  0.23621000  1
  C  424  1  0.77680500  0.52794300  0.24523900  1
  C  426  1  0.76637300  0.48089000  0.27383200  1
  C  429  1  0.77772100  0.45750600  0.29248200  1
  C  431  1  0.73256300  0.55205800  0.21758800  1
  C  433  1  0.52808000  0.27540200  0.76714900  1
  C  435  1  0.51602900  0.23156100  0.73543100  1
  C  436  1  0.48273400  0.23427400  0.74292700  1
  C  438  1  0.49478600  0.27811500  0.77464700  1
  C  441  1  0.48402400  0.30089400  0.79408800  1
  C  443  1  0.52677900  0.20879000  0.71597700  1
  C  445  1  0.98255500  0.52550900  0.51699700  1
  C  447  1  0.99459000  0.48158600  0.48535400  1
  C  448  1  0.02787100  0.48423600  0.49291500  1
  C  450  1  0.01583700  0.52815800  0.52455600  1
  C  453  1  0.02659300  0.55093700  0.54400100  1
  C  455  1  0.98383000  0.45880000  0.46591900  1
  C  457  1  0.77818200  0.73430400  0.01731600  1
  C  459  1  0.76613300  0.77808500  0.98553600  1
  C  460  1  0.73283200  0.77535900  0.99300900  1
  C  462  1  0.74488300  0.73157900  0.02479000  1
  C  465  1  0.73412300  0.70882900  0.04425900  1
  C  467  1  0.77689500  0.80083700  0.96607000  1
  C  469  1  0.27832700  0.02554400  0.24306100  1
  C  471  1  0.26622900  0.98169100  0.27475600  1
  C  472  1  0.23295300  0.98438200  0.26720200  1
  C  474  1  0.24505000  0.02823400  0.23550500  1
  C  477  1  0.23432400  0.05100000  0.21603600  1
  C  479  1  0.27695700  0.95891600  0.29421600  1
  C  481  1  0.23373500  0.27806300  0.99524300  1
  C  483  1  0.24420200  0.23103900  0.02386300  1
  C  484  1  0.27707700  0.23175100  0.01482000  1
  C  486  1  0.26660800  0.27877400  0.98620200  1
  C  489  1  0.27793900  0.30216100  0.96754400  1
  C  491  1  0.23286600  0.20765000  0.04251500  1
  C  493  1  0.73427000  0.98279000  0.76568300  1
  C  495  1  0.74560600  0.02825300  0.73548500  1
  C  496  1  0.77871500  0.02656800  0.74376600  1
  C  498  1  0.76738400  0.98110000  0.77395000  1
  C  501  1  0.77849200  0.95794000  0.79290800  1
  C  503  1  0.73467500  0.05125800  0.71631100  1
  C  505  1  0.48398000  0.02799000  0.51494700  1
  C  507  1  0.49436300  0.98089200  0.48639400  1
  C  508  1  0.52723500  0.98155600  0.49544100  1
  C  510  1  0.51685200  0.02865500  0.52399500  1
  C  513  1  0.52823200  0.05206000  0.54261300  1
  C  515  1  0.48299300  0.95750000  0.46775900  1
  C  517  1  0.98371000  0.73174500  0.74517300  1
  C  519  1  0.99424300  0.77865100  0.77391800  1
  C  520  1  0.02714200  0.77786000  0.76495000  1
  C  522  1  0.01661000  0.73095600  0.73620100  1
  C  525  1  0.02792300  0.70759800  0.71751000  1
  C  527  1  0.98292200  0.80202600  0.79259100  1
  C  529  1  0.02677000  0.27689100  0.26557900  1
  C  531  1  0.01546900  0.23147300  0.23532200  1
  C  532  1  0.98234000  0.23318100  0.24354200  1
  C  534  1  0.99363500  0.27860300  0.27378400  1
  C  537  1  0.98249900  0.30175800  0.29273600  1
  C  539  1  0.02642600  0.20848200  0.21614700  1
  C  541  1  0.48215800  0.52666600  0.01638500  1
  C  543  1  0.49349100  0.48118100  0.98622300  1
  C  544  1  0.52659800  0.48284900  0.99451700  1
  C  546  1  0.51525900  0.52832900  0.02469300  1
  C  549  1  0.52618500  0.55132800  0.04387600  1
  C  551  1  0.48238300  0.45801400  0.96726900  1
  C  553  1  0.07424900  0.07126800  0.25833600  1
  C  554  1  0.06439300  0.10322300  0.26563600  1
  C  555  1  0.08266500  0.12184900  0.28488100  1
  C  556  1  0.11080500  0.10915300  0.29855600  1
  C  557  1  0.12159100  0.07797000  0.28922500  1
  C  558  1  0.10358100  0.05928100  0.26984500  1
  C  559  1  0.13055900  0.13000900  0.31916300  1
  C  560  1  0.15041600  0.15082600  0.29860100  1
  C  561  1  0.17858200  0.13807100  0.28500800  1
  C  562  1  0.19693300  0.15662900  0.26577400  1
  C  563  1  0.18717000  0.18859900  0.25841700  1
  C  564  1  0.15783200  0.20065400  0.26986900  1
  C  565  1  0.13971500  0.18201400  0.28921300  1
  C  566  1  0.10994900  0.15006800  0.33973000  1
  C  567  1  0.15106700  0.10996600  0.33981800  1
  C  568  1  0.18259600  0.11989600  0.34892300  1
  C  569  1  0.20096500  0.10137300  0.36817400  1
  C  570  1  0.18812900  0.07241100  0.37994900  1
  C  571  1  0.15593400  0.06352800  0.37285100  1
  C  572  1  0.13771500  0.08218100  0.35359300  1
  C  573  1  0.07840600  0.14008600  0.34875700  1
  C  574  1  0.05992800  0.15858700  0.36794300  1
  C  575  1  0.07265600  0.18758200  0.37975000  1
  C  576  1  0.10484700  0.19654300  0.37270000  1
  C  577  1  0.12318700  0.17789600  0.35351800  1
  C  598  1  0.68690000  0.18836100  0.75835700  1
  C  599  1  0.69672400  0.15639100  0.76564300  1
  C  600  1  0.67844800  0.13778500  0.78490200  1
  C  601  1  0.65034500  0.15051600  0.79860800  1
  C  602  1  0.63959500  0.18172000  0.78930000  1
  C  603  1  0.65760500  0.20038800  0.76990600  1
  C  604  1  0.63058900  0.12967500  0.81922500  1
  C  605  1  0.61072800  0.10883800  0.79868200  1
  C  606  1  0.58261500  0.12163400  0.78503200  1
  C  607  1  0.56423900  0.10307500  0.76581500  1
  C  608  1  0.57396100  0.07108300  0.75848900  1
  C  609  1  0.60325500  0.05898500  0.76999000  1
  C  610  1  0.62138200  0.07762100  0.78933000  1
  C  611  1  0.65121200  0.10962600  0.83979000  1
  C  612  1  0.61008800  0.14973400  0.83987200  1
  C  613  1  0.57853200  0.13983900  0.84894200  1
  C  614  1  0.56015100  0.15838200  0.86817200  1
  C  615  1  0.57300600  0.18732000  0.87997400  1
  C  616  1  0.60521900  0.19617100  0.87290800  1
  C  617  1  0.62344600  0.17749900  0.85366900  1
  C  618  1  0.68277000  0.11958500  0.84879800  1
  C  619  1  0.70123400  0.10109500  0.86799900  1
  C  620  1  0.68847700  0.07213700  0.87985200  1
  C  621  1  0.65626900  0.06321200  0.87283300  1
  C  622  1  0.63794200  0.08184900  0.85363300  1
  C  643  1  0.18664300  0.57132800  0.87973700  1
  C  644  1  0.19667600  0.60314800  0.87218600  1
  C  645  1  0.17839300  0.62175100  0.85293200  1
  C  646  1  0.15008800  0.60913600  0.83945400  1
  C  647  1  0.13914100  0.57811500  0.84904500  1
  C  648  1  0.15715500  0.55945000  0.86844000  1
  C  649  1  0.13028400  0.62994200  0.81885200  1
  C  650  1  0.11039200  0.65072100  0.83941000  1
  C  651  1  0.08206600  0.63805700  0.85281900  1
  C  652  1  0.06372000  0.65659900  0.87206900  1
  C  653  1  0.07365600  0.68844800  0.87964400  1
  C  654  1  0.10315200  0.70037700  0.86840000  1
  C  655  1  0.12126400  0.68174700  0.84904500  1
  C  656  1  0.15084400  0.65004200  0.79828500  1
  C  657  1  0.10981200  0.60984900  0.79821400  1
  C  658  1  0.07843300  0.61995100  0.78886200  1
  C  659  1  0.06006700  0.60141700  0.76961600  1
  C  660  1  0.07278400  0.57228600  0.75806100  1
  C  661  1  0.10487300  0.56324000  0.76536400  1
  C  662  1  0.12307800  0.58189700  0.78462900  1
  C  663  1  0.18223100  0.63988600  0.78899800  1
  C  664  1  0.20068800  0.65838600  0.76979600  1
  C  665  1  0.18807600  0.68755400  0.75821700  1
  C  666  1  0.15599800  0.69668000  0.76548800  1
  C  667  1  0.13768200  0.67803300  0.78468700  1
  C  688  1  0.57393900  0.68844500  0.37976800  1
  C  689  1  0.56411900  0.65647200  0.37249300  1
  C  690  1  0.58238800  0.63786400  0.35323200  1
  C  691  1  0.61050100  0.65058900  0.33953100  1
  C  692  1  0.62125300  0.68179100  0.34884000  1
  C  693  1  0.60324100  0.70046500  0.36822900  1
  C  694  1  0.63025900  0.62973900  0.31892200  1
  C  695  1  0.65010600  0.60890600  0.33948200  1
  C  696  1  0.67823000  0.62167800  0.35312700  1
  C  697  1  0.69658200  0.60310900  0.37235300  1
  C  698  1  0.68685100  0.57111300  0.37965500  1
  C  699  1  0.65755600  0.55903000  0.36814500  1
  C  700  1  0.63943900  0.57768200  0.34880900  1
  C  701  1  0.60965300  0.60969500  0.29834100  1
  C  702  1  0.65078000  0.64979500  0.29828600  1
  C  703  1  0.68233500  0.63989100  0.28922600  1
  C  704  1  0.70072900  0.65842600  0.27000100  1
  C  705  1  0.68789100  0.68737300  0.25820300  1
  C  706  1  0.65567100  0.69622600  0.26524600  1
  C  707  1  0.63743100  0.67755900  0.28448000  1
  C  708  1  0.57808800  0.61964900  0.28934900  1
  C  709  1  0.55962100  0.60115500  0.27014600  1
  C  710  1  0.57237400  0.57219000  0.25830600  1
  C  711  1  0.60458400  0.56326500  0.26532300  1
  C  712  1  0.62292100  0.58191500  0.28450500  1
  C  733  1  0.82254200  0.32215200  0.62973400  1
  C  734  1  0.85456400  0.31298200  0.62233000  1
  C  735  1  0.87283000  0.33164600  0.60310500  1
  C  736  1  0.85965300  0.35969500  0.58961100  1
  C  737  1  0.82833200  0.36989100  0.59902600  1
  C  738  1  0.80993400  0.35137800  0.61825900  1
  C  739  1  0.88014900  0.37981000  0.56900400  1
  C  740  1  0.90062800  0.39993500  0.58961300  1
  C  741  1  0.88738700  0.42793800  0.60313500  1
  C  742  1  0.90560000  0.44660200  0.62239500  1
  C  743  1  0.93765100  0.43750100  0.62976100  1
  C  744  1  0.95032800  0.40831400  0.61827600  1
  C  745  1  0.93196400  0.38978300  0.59902600  1
  C  746  1  0.90001500  0.35903400  0.54842500  1
  C  747  1  0.86026800  0.40055800  0.54841000  1
  C  748  1  0.87117000  0.43156400  0.53874700  1
  C  749  1  0.85303800  0.45020900  0.51941500  1
  C  750  1  0.82349600  0.43831600  0.50822600  1
  C  751  1  0.81352600  0.40649200  0.51584200  1
  C  752  1  0.83189500  0.38792500  0.53506000  1
  C  753  1  0.88903600  0.32808100  0.53870800  1
  C  754  1  0.90709400  0.30945300  0.51931900  1
  C  755  1  0.93665500  0.32131200  0.50814800  1
  C  756  1  0.94672600  0.35308000  0.51582300  1
  C  757  1  0.92841100  0.37164200  0.53508600  1
  C  778  1  0.93846000  0.93737800  0.12990800  1
  C  779  1  0.90635700  0.94645200  0.12267400  1
  C  780  1  0.88804900  0.92779800  0.10347400  1
  C  781  1  0.90125300  0.89986100  0.08982620  1
  C  782  1  0.93267700  0.88975800  0.09906120  1
  C  783  1  0.95111900  0.90825900  0.11827100  1
  C  784  1  0.88070800  0.87978500  0.06922620  1
  C  785  1  0.86019300  0.85969700  0.08983720  1
  C  786  1  0.87346300  0.83179900  0.10350000  1
  C  787  1  0.85523300  0.81316400  0.12276700  1
  C  788  1  0.82311800  0.82218500  0.12999400  1
  C  789  1  0.81037300  0.85125000  0.11833800  1
  C  790  1  0.82876400  0.86976300  0.09909220  1
  C  791  1  0.86087200  0.90060300  0.04866020  1
  C  792  1  0.90053300  0.85897400  0.04863920  1
  C  793  1  0.88969700  0.82789000  0.03911220  1
  C  794  1  0.90777800  0.80923800  0.01975120  1
  C  795  1  0.93719500  0.82120600  0.00838520  1
  C  796  1  0.94709500  0.85309600  0.01586220  1
  C  797  1  0.92877900  0.87166100  0.03511920  1
  C  798  1  0.87178000  0.93164900  0.03909320  1
  C  799  1  0.85374800  0.95030600  0.01970720  1
  C  800  1  0.82427300  0.93840600  0.00840220  1
  C  801  1  0.81429300  0.90655500  0.01591120  1
  C  802  1  0.83258800  0.88796300  0.03516520  1
  C  823  1  0.32246700  0.43745400  0.00816120  1
  C  824  1  0.35456500  0.44653600  0.01540020  1
  C  825  1  0.37286800  0.42789100  0.03461320  1
  C  826  1  0.35967100  0.39993700  0.04823820  1
  C  827  1  0.32824200  0.38983700  0.03901420  1
  C  828  1  0.30980200  0.40833800  0.01980120  1
  C  829  1  0.38020600  0.37987400  0.06885720  1
  C  830  1  0.40073100  0.35978300  0.04825720  1
  C  831  1  0.38745900  0.33187800  0.03460620  1
  C  832  1  0.40568800  0.31323100  0.01535220  1
  C  833  1  0.43780600  0.32224700  0.00811920  1
  C  834  1  0.45054800  0.35132400  0.01975720  1
  C  835  1  0.43216200  0.36984200  0.03900120  1
  C  836  1  0.40003000  0.40070700  0.08942320  1
  C  837  1  0.36036900  0.35908700  0.08945520  1
  C  838  1  0.37119200  0.32799500  0.09897520  1
  C  839  1  0.35309200  0.30934100  0.11832100  1
  C  840  1  0.32365600  0.32130400  0.12966000  1
  C  841  1  0.31377600  0.35320200  0.12218900  1
  C  842  1  0.33210800  0.37177100  0.10295000  1
  C  843  1  0.38912400  0.43175500  0.09898120  1
  C  844  1  0.40715100  0.45040700  0.11837400  1
  C  845  1  0.43661400  0.43849700  0.12969600  1
  C  846  1  0.44660000  0.40665100  0.12217900  1
  C  847  1  0.42831400  0.38806400  0.10291600  1
  C  868  1  0.43830600  0.82226800  0.50837100  1
  C  869  1  0.40621300  0.81319600  0.51564000  1
  C  870  1  0.38793200  0.83185800  0.53485500  1
  C  871  1  0.40115800  0.85980400  0.54847700  1
  C  872  1  0.43256800  0.86990200  0.53920700  1
  C  873  1  0.45098100  0.85139400  0.51998000  1
  C  874  1  0.38063300  0.87989300  0.56908200  1
  C  875  1  0.36014000  0.90000800  0.54847500  1
  C  876  1  0.37343900  0.92791700  0.53484800  1
  C  877  1  0.35523400  0.94658200  0.51558800  1
  C  878  1  0.32312600  0.93757100  0.50831400  1
  C  879  1  0.31037100  0.90848100  0.51991900  1
  C  880  1  0.32872800  0.88995100  0.53917600  1
  C  881  1  0.36077500  0.85908900  0.58964600  1
  C  882  1  0.40048900  0.90066700  0.58967400  1
  C  883  1  0.38967800  0.93174600  0.59923300  1
  C  884  1  0.40780100  0.95037900  0.61858000  1
  C  885  1  0.43723900  0.93839900  0.62989500  1
  C  886  1  0.44711000  0.90650800  0.62238900  1
  C  887  1  0.42874400  0.88795400  0.60316200  1
  C  888  1  0.37165400  0.82804400  0.59922900  1
  C  889  1  0.35358800  0.80940400  0.61860300  1
  C  890  1  0.32411500  0.82133000  0.62988900  1
  C  891  1  0.31414700  0.85317400  0.62234500  1
  C  892  1  0.33247400  0.87174800  0.60310100  1
  C  913  1  0.98430400  0.02695400  0.20448300  1
  C  915  1  0.99557600  0.98126600  0.17452000  1
  C  916  1  0.02865800  0.98286500  0.18289400  1
  C  918  1  0.01739100  0.02855800  0.21284100  1
  C  921  1  0.02852100  0.05179300  0.23172400  1
  C  923  1  0.98462800  0.95819400  0.15541100  1
  C  925  1  0.77678100  0.23254900  0.70433400  1
  C  927  1  0.76550300  0.27830300  0.67444700  1
  C  928  1  0.73244800  0.27676400  0.68290400  1
  C  930  1  0.74372000  0.23100600  0.71277700  1
  C  933  1  0.73260400  0.20777200  0.73166800  1
  C  935  1  0.77643100  0.30138500  0.65533700  1
  C  937  1  0.27664200  0.52693200  0.93348900  1
  C  939  1  0.26535000  0.48132000  0.96353200  1
  C  940  1  0.23226000  0.48294700  0.95518900  1
  C  942  1  0.24354600  0.52856400  0.92516200  1
  C  945  1  0.23242400  0.55177500  0.90625400  1
  C  947  1  0.27629500  0.45827500  0.98266600  1
  C  949  1  0.48405800  0.73266300  0.43377100  1
  C  951  1  0.49535200  0.77839000  0.46368500  1
  C  952  1  0.52841200  0.77682900  0.45524400  1
  C  954  1  0.51712300  0.73110000  0.42534500  1
  C  957  1  0.52823400  0.70786900  0.40644700  1
  C  959  1  0.48442900  0.80146500  0.48280100  1
  C  961  1  0.23401700  0.77701000  0.68357000  1
  C  963  1  0.24525000  0.73140300  0.71363400  1
  C  964  1  0.27835600  0.73302700  0.70533600  1
  C  966  1  0.26712800  0.77863900  0.67528700  1
  C  969  1  0.27829000  0.80184600  0.65638900  1
  C  971  1  0.23427300  0.70836000  0.73275600  1
  C  973  1  0.73349600  0.48159600  0.45377700  1
  C  975  1  0.74392600  0.52864900  0.42518300  1
  C  976  1  0.77680500  0.52794300  0.43421200  1
  C  978  1  0.76637300  0.48089000  0.46280500  1
  C  981  1  0.77772100  0.45750600  0.48145500  1
  C  983  1  0.73256300  0.55205800  0.40656100  1
  C  985  1  0.52808000  0.27540200  0.95612200  1
  C  987  1  0.51602900  0.23156100  0.92440400  1
  C  988  1  0.48273400  0.23427400  0.93190000  1
  C  990  1  0.49478600  0.27811500  0.96362000  1
  C  993  1  0.48402400  0.30089400  0.98306100  1
  C  995  1  0.52677900  0.20879000  0.90495000  1
  C  997  1  0.98255500  0.52550900  0.70597000  1
  C  999  1  0.99459000  0.48158600  0.67432700  1
  C  1000  1  0.02787100  0.48423600  0.68188800  1
  C  1002  1  0.01583700  0.52815800  0.71352900  1
  C  1005  1  0.02659300  0.55093700  0.73297400  1
  C  1007  1  0.98383000  0.45880000  0.65489200  1
  C  1009  1  0.77818200  0.73430400  0.20628900  1
  C  1011  1  0.76613300  0.77808500  0.17450900  1
  C  1012  1  0.73283200  0.77535900  0.18198200  1
  C  1014  1  0.74488300  0.73157900  0.21376300  1
  C  1017  1  0.73412300  0.70882900  0.23323200  1
  C  1019  1  0.77689500  0.80083700  0.15504300  1
  C  1021  1  0.27832700  0.02554400  0.43203400  1
  C  1023  1  0.26622900  0.98169100  0.46372900  1
  C  1024  1  0.23295300  0.98438200  0.45617500  1
  C  1026  1  0.24505000  0.02823400  0.42447800  1
  C  1029  1  0.23432400  0.05100000  0.40500900  1
  C  1031  1  0.27695700  0.95891600  0.48318900  1
  C  1033  1  0.23373500  0.27806300  0.18421600  1
  C  1035  1  0.24420200  0.23103900  0.21283600  1
  C  1036  1  0.27707700  0.23175100  0.20379300  1
  C  1038  1  0.26660800  0.27877400  0.17517500  1
  C  1041  1  0.27793900  0.30216100  0.15651700  1
  C  1043  1  0.23286600  0.20765000  0.23148800  1
  C  1045  1  0.73427000  0.98279000  0.95465600  1
  C  1047  1  0.74560600  0.02825300  0.92445800  1
  C  1048  1  0.77871500  0.02656800  0.93273900  1
  C  1050  1  0.76738400  0.98110000  0.96292300  1
  C  1053  1  0.77849200  0.95794000  0.98188100  1
  C  1055  1  0.73467500  0.05125800  0.90528400  1
  C  1057  1  0.48398000  0.02799000  0.70392000  1
  C  1059  1  0.49436300  0.98089200  0.67536700  1
  C  1060  1  0.52723500  0.98155600  0.68441400  1
  C  1062  1  0.51685200  0.02865500  0.71296800  1
  C  1065  1  0.52823200  0.05206000  0.73158600  1
  C  1067  1  0.48299300  0.95750000  0.65673200  1
  C  1069  1  0.98371000  0.73174500  0.93414600  1
  C  1071  1  0.99424300  0.77865100  0.96289100  1
  C  1072  1  0.02714200  0.77786000  0.95392300  1
  C  1074  1  0.01661000  0.73095600  0.92517400  1
  C  1077  1  0.02792300  0.70759800  0.90648300  1
  C  1079  1  0.98292200  0.80202600  0.98156400  1
  C  1081  1  0.02677000  0.27689100  0.45455200  1
  C  1083  1  0.01546900  0.23147300  0.42429500  1
  C  1084  1  0.98234000  0.23318100  0.43251500  1
  C  1086  1  0.99363500  0.27860300  0.46275700  1
  C  1089  1  0.98249900  0.30175800  0.48170900  1
  C  1091  1  0.02642600  0.20848200  0.40512000  1
  C  1093  1  0.48215800  0.52666600  0.20535800  1
  C  1095  1  0.49349100  0.48118100  0.17519600  1
  C  1096  1  0.52659800  0.48284900  0.18349000  1
  C  1098  1  0.51525900  0.52832900  0.21366600  1
  C  1101  1  0.52618500  0.55132800  0.23284900  1
  C  1103  1  0.48238300  0.45801400  0.15624200  1
  N  41  1  0.20405800  0.05323000  0.20899800  1
  N  42  1  0.05659300  0.20681300  0.20868700  1
  N  43  1  0.05828400  0.05203200  0.05143400  1
  N  44  1  0.20326100  0.20784600  0.05159200  1
  N  86  1  0.55706200  0.20651900  0.70900000  1
  N  87  1  0.70452100  0.05291600  0.70881100  1
  N  88  1  0.70287000  0.20758900  0.55145300  1
  N  89  1  0.55783400  0.05182700  0.55169600  1
  N  131  1  0.05685300  0.55309900  0.55107100  1
  N  132  1  0.20413300  0.70679500  0.55133700  1
  N  133  1  0.20262600  0.55210000  0.70868900  1
  N  134  1  0.05756900  0.70769100  0.70853100  1
  N  176  1  0.70383500  0.70655000  0.05121400  1
  N  177  1  0.55632900  0.55296900  0.05140100  1
  N  178  1  0.55797300  0.70767400  0.20873000  1
  N  179  1  0.70295800  0.55185100  0.20851200  1
  N  221  1  0.80737700  0.45759100  0.30143900  1
  N  222  1  0.95266500  0.30212200  0.30123800  1
  N  223  1  0.80653200  0.30289100  0.45868200  1
  N  224  1  0.95357800  0.45667500  0.45881400  1
  N  266  1  0.95327300  0.80194100  0.80156500  1
  N  267  1  0.80829700  0.95761000  0.80148300  1
  N  268  1  0.95450400  0.95663300  0.95883700  1
  N  269  1  0.80716900  0.80302500  0.95904500  1
  N  311  1  0.30757300  0.30203900  0.95853200  1
  N  312  1  0.45258500  0.45769600  0.95867700  1
  N  313  1  0.30642300  0.45670200  0.80127700  1
  N  314  1  0.45375700  0.30307000  0.80113400  1
  N  356  1  0.45335900  0.95765400  0.45875100  1
  N  357  1  0.30809000  0.80212600  0.45883100  1
  N  358  1  0.45432100  0.80301000  0.30147500  1
  N  359  1  0.30721400  0.95674300  0.30130300  1
  N  362  1  0.97483400  0.00367100  0.99690000  1
  N  365  1  0.03812200  0.00615500  0.01250700  1
  N  374  1  0.78623600  0.25583600  0.49675100  1
  N  377  1  0.72299700  0.25347200  0.51252000  1
  N  386  1  0.28610700  0.50367500  0.76315100  1
  N  389  1  0.22280100  0.50621200  0.74760500  1
  N  398  1  0.47461000  0.75594800  0.26341400  1
  N  401  1  0.53785600  0.75354000  0.24767600  1
  N  410  1  0.22451800  0.75376000  0.51322400  1
  N  413  1  0.28785100  0.75628500  0.49775900  1
  N  422  1  0.72370800  0.50515000  0.24658000  1
  N  425  1  0.78659000  0.50439200  0.26346400  1
  N  434  1  0.53725500  0.25253000  0.74807100  1
  N  437  1  0.47356000  0.25714700  0.76200400  1
  N  446  1  0.97337800  0.50262400  0.49792900  1
  N  449  1  0.03704800  0.50712000  0.51198300  1
  N  458  1  0.78736200  0.75715200  0.99821900  1
  N  461  1  0.72365200  0.75251200  0.01210800  1
  N  470  1  0.28747200  0.00267500  0.26215400  1
  N  473  1  0.22380700  0.00724900  0.24810700  1
  N  482  1  0.22396900  0.25452200  0.01348600  1
  N  485  1  0.28684200  0.25529400  0.99657700  1
  N  494  1  0.72481900  0.00600000  0.74700000  1
  N  497  1  0.78815800  0.00335100  0.76242900  1
  N  506  1  0.47417200  0.00443300  0.49673500  1
  N  509  1  0.53704200  0.00511500  0.51365400  1
  N  518  1  0.97396400  0.75526400  0.76344500  1
  N  521  1  0.03688800  0.75434300  0.74667500  1
  N  530  1  0.03624600  0.25369400  0.24689300  1
  N  533  1  0.97286800  0.25638600  0.26220400  1
  N  542  1  0.47271700  0.50345000  0.99772100  1
  N  545  1  0.53604100  0.50605800  0.01320200  1
  N  593  1  0.20405800  0.05323000  0.39797100  1
  N  594  1  0.05659300  0.20681300  0.39766000  1
  N  595  1  0.05828400  0.05203200  0.24040700  1
  N  596  1  0.20326100  0.20784600  0.24056500  1
  N  638  1  0.55706200  0.20651900  0.89797300  1
  N  639  1  0.70452100  0.05291600  0.89778400  1
  N  640  1  0.70287000  0.20758900  0.74042600  1
  N  641  1  0.55783400  0.05182700  0.74066900  1
  N  683  1  0.05685300  0.55309900  0.74004400  1
  N  684  1  0.20413300  0.70679500  0.74031000  1
  N  685  1  0.20262600  0.55210000  0.89766200  1
  N  686  1  0.05756900  0.70769100  0.89750400  1
  N  728  1  0.70383500  0.70655000  0.24018700  1
  N  729  1  0.55632900  0.55296900  0.24037400  1
  N  730  1  0.55797300  0.70767400  0.39770300  1
  N  731  1  0.70295800  0.55185100  0.39748500  1
  N  773  1  0.80737700  0.45759100  0.49041200  1
  N  774  1  0.95266500  0.30212200  0.49021100  1
  N  775  1  0.80653200  0.30289100  0.64765500  1
  N  776  1  0.95357800  0.45667500  0.64778700  1
  N  818  1  0.95327300  0.80194100  0.99053800  1
  N  819  1  0.80829700  0.95761000  0.99045600  1
  N  820  1  0.95450400  0.95663300  0.14781000  1
  N  821  1  0.80716900  0.80302500  0.14801800  1
  N  863  1  0.30757300  0.30203900  0.14750500  1
  N  864  1  0.45258500  0.45769600  0.14765000  1
  N  865  1  0.30642300  0.45670200  0.99025000  1
  N  866  1  0.45375700  0.30307000  0.99010700  1
  N  908  1  0.45335900  0.95765400  0.64772400  1
  N  909  1  0.30809000  0.80212600  0.64780400  1
  N  910  1  0.45432100  0.80301000  0.49044800  1
  N  911  1  0.30721400  0.95674300  0.49027600  1
  N  914  1  0.97483400  0.00367100  0.18587300  1
  N  917  1  0.03812200  0.00615500  0.20148000  1
  N  926  1  0.78623600  0.25583600  0.68572400  1
  N  929  1  0.72299700  0.25347200  0.70149300  1
  N  938  1  0.28610700  0.50367500  0.95212400  1
  N  941  1  0.22280100  0.50621200  0.93657800  1
  N  950  1  0.47461000  0.75594800  0.45238700  1
  N  953  1  0.53785600  0.75354000  0.43664900  1
  N  962  1  0.22451800  0.75376000  0.70219700  1
  N  965  1  0.28785100  0.75628500  0.68673200  1
  N  974  1  0.72370800  0.50515000  0.43555300  1
  N  977  1  0.78659000  0.50439200  0.45243700  1
  N  986  1  0.53725500  0.25253000  0.93704400  1
  N  989  1  0.47356000  0.25714700  0.95097700  1
  N  998  1  0.97337800  0.50262400  0.68690200  1
  N  1001  1  0.03704800  0.50712000  0.70095600  1
  N  1010  1  0.78736200  0.75715200  0.18719200  1
  N  1013  1  0.72365200  0.75251200  0.20108100  1
  N  1022  1  0.28747200  0.00267500  0.45112700  1
  N  1025  1  0.22380700  0.00724900  0.43708000  1
  N  1034  1  0.22396900  0.25452200  0.20245900  1
  N  1037  1  0.28684200  0.25529400  0.18555000  1
  N  1046  1  0.72481900  0.00600000  0.93597300  1
  N  1049  1  0.78815800  0.00335100  0.95140200  1
  N  1058  1  0.47417200  0.00443300  0.68570800  1
  N  1061  1  0.53704200  0.00511500  0.70262700  1
  N  1070  1  0.97396400  0.75526400  0.95241800  1
  N  1073  1  0.03688800  0.75434300  0.93564800  1
  N  1082  1  0.03624600  0.25369400  0.43586600  1
  N  1085  1  0.97286800  0.25638600  0.45117700  1
  N  1094  1  0.47271700  0.50345000  0.18669400  1
  N  1097  1  0.53604100  0.50605800  0.20217500  1
