# generated using pymatgen
data_H15C19NO2
_symmetry_space_group_name_H-M   'P 1'
_cell_length_a   39.91940000
_cell_length_b   39.91940000
_cell_length_c   82.22310000
_cell_angle_alpha   90.00000000
_cell_angle_beta   90.00000000
_cell_angle_gamma   90.00000000
_symmetry_Int_Tables_number   1
_chemical_formula_structural   H15C19NO2
_chemical_formula_sum   'H960 C1216 N64 O128'
_cell_volume   131027.31960206
_cell_formula_units_Z   64
loop_
 _symmetry_equiv_pos_site_id
 _symmetry_equiv_pos_as_xyz
  1  'x, y, z'
loop_
 _atom_site_type_symbol
 _atom_site_label
 _atom_site_symmetry_multiplicity
 _atom_site_fract_x
 _atom_site_fract_y
 _atom_site_fract_z
 _atom_site_occupancy
  H  5  1  0.14837200  0.05968100  0.09323800  1
  H  6  1  0.14754300  0.02523900  0.08002500  1
  H  9  1  0.13565200  0.03245800  0.04937300  1
  H  10  1  0.12453700  0.07252800  0.04215900  1
  H  11  1  0.19557200  0.02054000  0.05782800  1
  H  12  1  0.22649600  0.05188500  0.05673900  1
  H  15  1  0.17088000  0.11868000  0.03914700  1
  H  16  1  0.21149400  0.10969700  0.04571500  1
  H  18  1  0.12046400  0.12170000  0.06151700  1
  H  19  1  0.13236400  0.11841500  0.08192100  1
  H  21  1  0.22400500  0.10284600  0.07542600  1
  H  22  1  0.19226300  0.10671500  0.09024000  1
  H  27  1  0.35099000  0.93960500  0.59324400  1
  H  28  1  0.35179400  0.97404700  0.58003000  1
  H  31  1  0.36368800  0.96683500  0.54937700  1
  H  32  1  0.37484000  0.92677500  0.54216600  1
  H  33  1  0.30375700  0.97869700  0.55783100  1
  H  34  1  0.27286200  0.94732100  0.55674500  1
  H  37  1  0.32855900  0.88057700  0.53915700  1
  H  38  1  0.28792800  0.88951700  0.54572000  1
  H  40  1  0.37896300  0.87761300  0.56152900  1
  H  41  1  0.36705400  0.88089000  0.58193200  1
  H  43  1  0.27539500  0.89637800  0.57543300  1
  H  44  1  0.30713600  0.89253300  0.59024900  1
  H  49  1  0.18665900  0.89115000  0.34263700  1
  H  50  1  0.22122600  0.88975300  0.32950700  1
  H  53  1  0.21400900  0.87823400  0.29882700  1
  H  54  1  0.17369900  0.86859200  0.29143400  1
  H  55  1  0.22751200  0.93783700  0.30765100  1
  H  56  1  0.19700400  0.96960600  0.30651100  1
  H  59  1  0.12906000  0.91598500  0.28839600  1
  H  60  1  0.13887800  0.95628700  0.29515800  1
  H  62  1  0.12399900  0.86564600  0.31044800  1
  H  63  1  0.12744000  0.87671600  0.33098100  1
  H  65  1  0.14557600  0.96802300  0.32494700  1
  H  66  1  0.14090500  0.93606600  0.33964800  1
  H  71  1  0.31270200  0.10807300  0.84263500  1
  H  72  1  0.27812800  0.10945700  0.82950900  1
  H  75  1  0.28533200  0.12100000  0.79882900  1
  H  76  1  0.32563600  0.13066000  0.79143300  1
  H  77  1  0.27185800  0.06138500  0.80764500  1
  H  78  1  0.30237900  0.02963000  0.80649900  1
  H  81  1  0.37029100  0.08328600  0.78838500  1
  H  82  1  0.36049100  0.04297700  0.79514400  1
  H  84  1  0.37534100  0.13361800  0.81044300  1
  H  85  1  0.37190900  0.12253600  0.83097700  1
  H  87  1  0.35381300  0.03122300  0.82493300  1
  H  88  1  0.35847700  0.06317600  0.83963600  1
  H  93  1  0.36871300  0.09059200  0.39680400  1
  H  94  1  0.37618500  0.04968300  0.40376000  1
  H  97  1  0.38472000  0.03798800  0.43290700  1
  H  98  1  0.38488000  0.06911600  0.44805800  1
  H  99  1  0.32871000  0.01892500  0.42148400  1
  H  100  1  0.29164300  0.04094200  0.42573200  1
  H  103  1  0.33171100  0.10121600  0.45550400  1
  H  104  1  0.29337400  0.09134000  0.44630500  1
  H  106  1  0.37646600  0.13312600  0.43770200  1
  H  107  1  0.36931400  0.13976700  0.41695900  1
  H  109  1  0.28370900  0.10112900  0.41603600  1
  H  110  1  0.31535500  0.12030900  0.40408800  1
  H  115  1  0.13061500  0.90865800  0.89678800  1
  H  116  1  0.12316700  0.94959100  0.90371500  1
  H  119  1  0.11459700  0.96138200  0.93285500  1
  H  120  1  0.11436000  0.93028900  0.94802100  1
  H  121  1  0.17064700  0.98034000  0.92145200  1
  H  122  1  0.20767800  0.95829100  0.92573200  1
  H  125  1  0.16744800  0.89812200  0.95551300  1
  H  126  1  0.20582700  0.90793200  0.94633900  1
  H  128  1  0.12271100  0.86621800  0.93768300  1
  H  129  1  0.12993600  0.85955200  0.91695100  1
  H  131  1  0.21557800  0.89810700  0.91608500  1
  H  132  1  0.18398700  0.87888100  0.90412300  1
  H  137  1  0.34393000  0.87598000  0.14670600  1
  H  138  1  0.30279800  0.86856200  0.15334400  1
  H  141  1  0.29022700  0.85824900  0.18243500  1
  H  142  1  0.32120500  0.85665100  0.19761200  1
  H  143  1  0.27232900  0.91506600  0.17165500  1
  H  144  1  0.29454100  0.95161200  0.17661600  1
  H  147  1  0.35408600  0.90841300  0.20602600  1
  H  148  1  0.34465700  0.94766700  0.19766000  1
  H  150  1  0.38574500  0.86475200  0.18717500  1
  H  151  1  0.39230300  0.87395600  0.16668700  1
  H  153  1  0.35443700  0.95976600  0.16765500  1
  H  154  1  0.37459500  0.92957500  0.15522600  1
  H  159  1  0.15545200  0.12332300  0.64669100  1
  H  160  1  0.19658800  0.13072100  0.65332900  1
  H  163  1  0.20916500  0.14102800  0.68242000  1
  H  164  1  0.17818900  0.14265400  0.69759700  1
  H  165  1  0.22702500  0.08419800  0.67164700  1
  H  166  1  0.20478800  0.04767000  0.67661100  1
  H  169  1  0.14526300  0.09092500  0.70601200  1
  H  170  1  0.15467000  0.05166000  0.69765300  1
  H  172  1  0.11363900  0.13459800  0.68715300  1
  H  173  1  0.10708400  0.12538600  0.66666667  1
  H  175  1  0.14489100  0.03955100  0.66765000  1
  H  176  1  0.12475000  0.06973900  0.65521600  1
  H  181  1  0.84363000  0.91764100  0.90623900  1
  H  182  1  0.85057600  0.95406700  0.91774500  1
  H  185  1  0.86481000  0.95114600  0.94787200  1
  H  186  1  0.86947900  0.91229000  0.95739500  1
  H  187  1  0.80660300  0.97187100  0.93982500  1
  H  188  1  0.77082800  0.94681000  0.94279400  1
  H  191  1  0.81519200  0.87573900  0.96310400  1
  H  192  1  0.77619400  0.89021600  0.95663000  1
  H  194  1  0.85950400  0.85620000  0.93966500  1
  H  195  1  0.84824100  0.86070200  0.91939600  1
  H  197  1  0.76200500  0.89271600  0.92676000  1
  H  198  1  0.79136700  0.88086700  0.91176400  1
  H  203  1  0.65561600  0.08174200  0.40623800  1
  H  204  1  0.64867900  0.04531500  0.41774500  1
  H  207  1  0.63447600  0.04823300  0.44787400  1
  H  208  1  0.62983100  0.08708600  0.45740300  1
  H  209  1  0.69266500  0.02749000  0.43980900  1
  H  210  1  0.72845300  0.05253700  0.44277200  1
  H  213  1  0.68413800  0.12362000  0.46309700  1
  H  214  1  0.72312400  0.10912900  0.45661100  1
  H  216  1  0.63980100  0.14318000  0.43967700  1
  H  217  1  0.65103700  0.13868500  0.41940300  1
  H  219  1  0.73727300  0.10663800  0.42673600  1
  H  220  1  0.70789100  0.11849900  0.41175100  1
  H  225  1  0.83388000  0.10337400  0.65857700  1
  H  226  1  0.79597100  0.10781600  0.66928800  1
  H  229  1  0.79565300  0.12144100  0.69984300  1
  H  230  1  0.83360200  0.12542500  0.71041700  1
  H  231  1  0.77717600  0.06364500  0.68946900  1
  H  232  1  0.80161000  0.02765600  0.69300000  1
  H  235  1  0.86964000  0.07096800  0.71536300  1
  H  236  1  0.85697700  0.03244600  0.70771400  1
  H  238  1  0.89032600  0.11818700  0.69507800  1
  H  239  1  0.89009800  0.11021900  0.67411300  1
  H  241  1  0.85956400  0.02139600  0.67760000  1
  H  242  1  0.87081900  0.05325300  0.66371900  1
  H  247  1  0.66541100  0.89605800  0.15856000  1
  H  248  1  0.70331700  0.89154900  0.16926500  1
  H  251  1  0.70364800  0.87783100  0.19980400  1
  H  252  1  0.66570600  0.87384300  0.21038200  1
  H  253  1  0.72217000  0.93565300  0.18947500  1
  H  254  1  0.69775600  0.97164500  0.19303300  1
  H  257  1  0.62972100  0.92823000  0.21536400  1
  H  258  1  0.64237700  0.96682000  0.20777600  1
  H  260  1  0.60894900  0.88120300  0.19505300  1
  H  261  1  0.60919200  0.88922900  0.17409300  1
  H  263  1  0.63982700  0.97801300  0.17765100  1
  H  264  1  0.62854400  0.94621600  0.16374500  1
  H  269  1  0.63751200  0.91222800  0.60416700  1
  H  270  1  0.63054800  0.95264400  0.59648400  1
  H  273  1  0.61855600  0.96185500  0.56736800  1
  H  274  1  0.61523400  0.92926500  0.55303400  1
  H  275  1  0.67662600  0.97974600  0.57649700  1
  H  276  1  0.71217200  0.95591800  0.57163100  1
  H  279  1  0.66567600  0.89463700  0.54466800  1
  H  280  1  0.70561700  0.90398900  0.55224000  1
  H  282  1  0.62241900  0.86559900  0.56532300  1
  H  283  1  0.63312100  0.86164800  0.58575700  1
  H  285  1  0.71962000  0.89687700  0.58234000  1
  H  286  1  0.68966900  0.87913400  0.59566800  1
  H  291  1  0.86185100  0.08710900  0.10417900  1
  H  292  1  0.86880300  0.04669400  0.09649400  1
  H  295  1  0.88078700  0.03748900  0.06737600  1
  H  296  1  0.88411400  0.07008300  0.05304400  1
  H  297  1  0.82271800  0.01960900  0.07650500  1
  H  298  1  0.78717300  0.04344600  0.07164200  1
  H  301  1  0.83368200  0.10472500  0.04468100  1
  H  302  1  0.79373900  0.09537800  0.05225200  1
  H  304  1  0.87694700  0.13374900  0.06534000  1
  H  305  1  0.86624500  0.13769000  0.08577500  1
  H  307  1  0.77973800  0.10248500  0.08235500  1
  H  308  1  0.80969600  0.12022500  0.09568100  1
  H  313  1  0.65636700  0.12043200  0.85157300  1
  H  314  1  0.69731700  0.12303000  0.84381100  1
  H  317  1  0.70693700  0.12684700  0.81348300  1
  H  318  1  0.67461400  0.12463600  0.79922000  1
  H  319  1  0.72272900  0.07039300  0.82854900  1
  H  320  1  0.69781600  0.03461200  0.82590000  1
  H  323  1  0.63977400  0.07216500  0.79523800  1
  H  324  1  0.64774200  0.03571800  0.80658300  1
  H  326  1  0.61265700  0.12406400  0.81062900  1
  H  327  1  0.60602800  0.12189500  0.83168900  1
  H  329  1  0.63690600  0.03365200  0.83677700  1
  H  330  1  0.62139700  0.06922900  0.84722000  1
  H  335  1  0.84303300  0.87895300  0.35160900  1
  H  336  1  0.80208800  0.87629800  0.34384200  1
  H  339  1  0.79249200  0.87242500  0.31351800  1
  H  340  1  0.82481700  0.87465000  0.29925600  1
  H  341  1  0.77662500  0.92887900  0.32855800  1
  H  342  1  0.80149500  0.96468600  0.32590100  1
  H  345  1  0.85959400  0.92715800  0.29526000  1
  H  346  1  0.85158100  0.96361100  0.30659300  1
  H  348  1  0.88677400  0.87531100  0.31067400  1
  H  349  1  0.89338500  0.87752000  0.33173400  1
  H  351  1  0.86240700  0.96573600  0.33678500  1
  H  352  1  0.87794400  0.93018900  0.34724400  1
  H  357  1  0.64846900  0.58343300  0.59129500  1
  H  358  1  0.64410000  0.54593200  0.58022700  1
  H  361  1  0.63147000  0.54677400  0.54964000  1
  H  362  1  0.62777700  0.58508600  0.53937200  1
  H  363  1  0.68892000  0.52762800  0.56011400  1
  H  364  1  0.72502600  0.55219200  0.55712100  1
  H  367  1  0.68287100  0.62117100  0.53495400  1
  H  368  1  0.72095200  0.60798700  0.54288400  1
  H  370  1  0.63493400  0.64127400  0.55516400  1
  H  371  1  0.64230700  0.64030500  0.57617600  1
  H  373  1  0.73100500  0.60946300  0.57305600  1
  H  374  1  0.69871500  0.62040700  0.58676800  1
  H  379  1  0.85096700  0.41594000  0.09129800  1
  H  380  1  0.85528100  0.45344600  0.08022900  1
  H  383  1  0.86780300  0.45260700  0.04962600  1
  H  384  1  0.87147800  0.41429500  0.03935800  1
  H  385  1  0.81038800  0.47172500  0.06015000  1
  H  386  1  0.77428000  0.44714800  0.05718600  1
  H  389  1  0.81632200  0.37817700  0.03497800  1
  H  390  1  0.77830600  0.39137100  0.04296400  1
  H  392  1  0.86442400  0.35812400  0.05515100  1
  H  393  1  0.85711700  0.35907300  0.07616800  1
  H  395  1  0.76839100  0.38985800  0.07313100  1
  H  396  1  0.80074100  0.37891800  0.08681100  1
  H  401  1  0.66384000  0.40181000  0.84081100  1
  H  402  1  0.70035300  0.39553200  0.82924300  1
  H  405  1  0.69754800  0.38286400  0.79909900  1
  H  406  1  0.65877500  0.37839500  0.78948800  1
  H  407  1  0.71821700  0.44079100  0.80770700  1
  H  408  1  0.69285800  0.47655800  0.80527200  1
  H  411  1  0.62214600  0.43284500  0.78434600  1
  H  412  1  0.63627700  0.47173300  0.79126900  1
  H  414  1  0.60255100  0.38805900  0.80635700  1
  H  415  1  0.60609400  0.39704000  0.82707600  1
  H  417  1  0.63886700  0.48409300  0.82162400  1
  H  418  1  0.62801000  0.45319300  0.83613000  1
  H  423  1  0.83558600  0.59752400  0.34083000  1
  H  424  1  0.79906700  0.60386900  0.32927600  1
  H  427  1  0.80185300  0.61659700  0.29913700  1
  H  428  1  0.84062100  0.62102400  0.28951600  1
  H  429  1  0.78110900  0.55867600  0.30772600  1
  H  430  1  0.80642000  0.52287800  0.30527200  1
  H  433  1  0.87715200  0.56653900  0.28433500  1
  H  434  1  0.86297900  0.52765300  0.29124200  1
  H  436  1  0.89684900  0.61123900  0.30635900  1
  H  437  1  0.89332700  0.60222600  0.32707600  1
  H  439  1  0.86041100  0.51523600  0.32159900  1
  H  440  1  0.87133800  0.54609800  0.33611200  1
  H  445  1  0.86197200  0.59206000  0.89793600  1
  H  446  1  0.86643100  0.55099500  0.90537500  1
  H  449  1  0.87034300  0.54054200  0.93562700  1
  H  450  1  0.86647300  0.57229800  0.95012400  1
  H  451  1  0.81520200  0.52242500  0.92029300  1
  H  452  1  0.77807300  0.54533400  0.92291300  1
  H  455  1  0.81214600  0.60392900  0.95412100  1
  H  456  1  0.77630700  0.59486800  0.94248300  1
  H  458  1  0.86265300  0.63447600  0.93942700  1
  H  459  1  0.86077200  0.64198100  0.91841400  1
  H  461  1  0.77429200  0.60687300  0.91240700  1
  H  462  1  0.80950100  0.62428300  0.90237900  1
  H  467  1  0.63730100  0.40727600  0.39786100  1
  H  468  1  0.63280500  0.44833100  0.40530600  1
  H  471  1  0.62882400  0.45875900  0.43555400  1
  H  472  1  0.63268500  0.42699800  0.45005000  1
  H  473  1  0.68398000  0.47692800  0.42025500  1
  H  474  1  0.72112300  0.45404200  0.42288800  1
  H  477  1  0.68702700  0.39541200  0.45406900  1
  H  478  1  0.72288400  0.40449500  0.44244700  1
  H  480  1  0.63657500  0.36482000  0.43934500  1
  H  481  1  0.63850100  0.35733500  0.41833100  1
  H  483  1  0.72496600  0.39250600  0.41237100  1
  H  484  1  0.68978500  0.37508600  0.40232600  1
  H  489  1  0.84407100  0.39008800  0.64601800  1
  H  490  1  0.80386200  0.38073700  0.65321300  1
  H  493  1  0.79565800  0.36713500  0.68340900  1
  H  494  1  0.82985400  0.36554400  0.69698100  1
  H  495  1  0.77320500  0.42287900  0.67345800  1
  H  496  1  0.79346900  0.46061500  0.67825100  1
  H  499  1  0.85846200  0.42097800  0.70568000  1
  H  500  1  0.84567900  0.45956800  0.69764800  1
  H  502  1  0.88858800  0.37971500  0.68663200  1
  H  503  1  0.89519600  0.38921700  0.66592300  1
  H  505  1  0.85247500  0.47298300  0.66733800  1
  H  506  1  0.87203200  0.44303300  0.65446400  1
  H  511  1  0.65525800  0.60925700  0.14600000  1
  H  512  1  0.69545400  0.61863100  0.15320500  1
  H  515  1  0.70362000  0.63228900  0.18339800  1
  H  516  1  0.66940400  0.63390000  0.19695800  1
  H  517  1  0.72609300  0.57652900  0.17347500  1
  H  518  1  0.70582700  0.53879800  0.17827900  1
  H  521  1  0.64079600  0.57848000  0.20567200  1
  H  522  1  0.65358900  0.53987500  0.19766100  1
  H  524  1  0.61068500  0.61970600  0.18659600  1
  H  525  1  0.60410700  0.61015900  0.16589000  1
  H  527  1  0.64682800  0.52640300  0.16735700  1
  H  528  1  0.62729400  0.55632100  0.15446100  1
  H  533  1  0.35542600  0.41082500  0.40840600  1
  H  534  1  0.36167400  0.44848600  0.41906000  1
  H  537  1  0.37484800  0.44883400  0.44911700  1
  H  538  1  0.37983800  0.41123100  0.45971500  1
  H  539  1  0.31660500  0.46825800  0.44037500  1
  H  540  1  0.28109100  0.44291700  0.44355000  1
  H  543  1  0.32794300  0.37383600  0.46519000  1
  H  544  1  0.28767200  0.38710500  0.45925600  1
  H  546  1  0.36920100  0.35245000  0.44401500  1
  H  547  1  0.36083200  0.35490800  0.42317500  1
  H  549  1  0.27293000  0.38813200  0.42866800  1
  H  550  1  0.30280000  0.37593700  0.41405600  1
  H  555  1  0.14379400  0.58854800  0.90844000  1
  H  556  1  0.13755800  0.55085700  0.91907200  1
  H  559  1  0.12443700  0.55041900  0.94912900  1
  H  560  1  0.11946900  0.58798700  0.95976000  1
  H  561  1  0.18266500  0.53101500  0.94035600  1
  H  562  1  0.21818500  0.55634300  0.94353600  1
  H  565  1  0.17133200  0.62533000  0.96523600  1
  H  566  1  0.21161800  0.61213600  0.95929100  1
  H  568  1  0.13006500  0.64683100  0.94408800  1
  H  569  1  0.13844200  0.64443800  0.92324600  1
  H  571  1  0.22632000  0.61118400  0.92868100  1
  H  572  1  0.19640600  0.62339800  0.91409400  1
  H  577  1  0.33718200  0.58663200  0.15491900  1
  H  578  1  0.30017000  0.59562200  0.16564600  1
  H  581  1  0.30138200  0.61210800  0.19537200  1
  H  582  1  0.33958400  0.61632400  0.20556500  1
  H  583  1  0.27893900  0.55394100  0.18814200  1
  H  584  1  0.30263700  0.51762300  0.19204200  1
  H  587  1  0.37440400  0.56316500  0.21208300  1
  H  588  1  0.35889100  0.52305100  0.20724600  1
  H  590  1  0.39719300  0.60083500  0.18981200  1
  H  591  1  0.39359000  0.59067800  0.16921900  1
  H  593  1  0.35662800  0.50515300  0.17706500  1
  H  594  1  0.37015100  0.53285100  0.16172700  1
  H  599  1  0.16209400  0.41267100  0.65490000  1
  H  600  1  0.19910800  0.40368800  0.66562500  1
  H  603  1  0.19790500  0.38721500  0.69535300  1
  H  604  1  0.15970500  0.38299700  0.70554700  1
  H  605  1  0.22033500  0.44538200  0.68811900  1
  H  606  1  0.19663100  0.48169800  0.69201600  1
  H  609  1  0.12487700  0.43615400  0.71206200  1
  H  610  1  0.14038700  0.47626700  0.70722100  1
  H  612  1  0.10209500  0.39846500  0.68979900  1
  H  613  1  0.10568400  0.40861800  0.66920300  1
  H  615  1  0.14263900  0.49415300  0.67703600  1
  H  616  1  0.12911400  0.46644200  0.66170400  1
  H  621  1  0.13741800  0.39877100  0.10231000  1
  H  622  1  0.12878100  0.43944000  0.09551800  1
  H  625  1  0.11418700  0.44904200  0.06569500  1
  H  626  1  0.11100700  0.41543700  0.05182000  1
  H  627  1  0.17112200  0.46976100  0.07503200  1
  H  628  1  0.20797900  0.44850400  0.06969900  1
  H  631  1  0.16548400  0.38630100  0.04221300  1
  H  632  1  0.20474100  0.39746100  0.05004100  1
  H  634  1  0.12415700  0.35611700  0.06138200  1
  H  635  1  0.13423200  0.34847500  0.08196800  1
  H  637  1  0.21927400  0.38843500  0.08027400  1
  H  638  1  0.18896900  0.36974500  0.09317300  1
  H  643  1  0.36191200  0.60045700  0.60231000  1
  H  644  1  0.37057200  0.55979000  0.59552000  1
  H  647  1  0.38523400  0.55018300  0.56569500  1
  H  648  1  0.38843300  0.58380600  0.55183100  1
  H  649  1  0.32828400  0.52946700  0.57501900  1
  H  650  1  0.29143200  0.55071500  0.56966700  1
  H  653  1  0.33397500  0.61292200  0.54219400  1
  H  654  1  0.29470400  0.60175500  0.55000000  1
  H  656  1  0.37526400  0.64311100  0.56139100  1
  H  657  1  0.36512300  0.65075100  0.58196900  1
  H  659  1  0.28010200  0.61078600  0.58022500  1
  H  660  1  0.31037000  0.62948800  0.59313800  1
  H  665  1  0.16213100  0.60468800  0.35356600  1
  H  666  1  0.20218900  0.61352900  0.34590100  1
  H  669  1  0.21076900  0.62622700  0.31687400  1
  H  670  1  0.17814100  0.62825600  0.30250700  1
  H  671  1  0.23145400  0.56896600  0.32588600  1
  H  672  1  0.20931300  0.53236500  0.32095700  1
  H  675  1  0.14514600  0.57704500  0.29457500  1
  H  676  1  0.15662400  0.53709500  0.30169000  1
  H  678  1  0.11446100  0.61658000  0.31423600  1
  H  679  1  0.11124300  0.60790200  0.33502900  1
  H  681  1  0.15054400  0.52176600  0.33178100  1
  H  682  1  0.13267400  0.55069700  0.34542700  1
  H  687  1  0.33704700  0.39460000  0.85356400  1
  H  688  1  0.29699600  0.38577700  0.84588800  1
  H  691  1  0.28844600  0.37308700  0.81685900  1
  H  692  1  0.32109200  0.37103800  0.80250200  1
  H  693  1  0.26778200  0.43035500  0.82586100  1
  H  694  1  0.28994900  0.46694300  0.82093400  1
  H  697  1  0.35413300  0.42222100  0.79457900  1
  H  698  1  0.34266500  0.46218100  0.80168800  1
  H  700  1  0.38477000  0.38267100  0.81425400  1
  H  701  1  0.38795400  0.39135100  0.83504700  1
  H  703  1  0.34871000  0.47751000  0.83177400  1
  H  704  1  0.36654100  0.44858400  0.84543400  1
  H  711  1  0.21603100  0.32510000  0.08516000  1
  H  718  1  0.14615600  0.22313700  0.04697300  1
  H  719  1  0.14005400  0.16568600  0.04876900  1
  H  720  1  0.22237700  0.16032000  0.08077600  1
  H  721  1  0.16555500  0.33112000  0.04040300  1
  H  724  1  0.26039000  0.22881800  0.07177200  1
  H  725  1  0.24813500  0.21096200  0.09051800  1
  H  726  1  0.24933700  0.27402700  0.09047000  1
  H  727  1  0.21007600  0.25729100  0.09631000  1
  H  737  1  0.28330100  0.67411800  0.58510400  1
  H  744  1  0.35338400  0.77612900  0.54701000  1
  H  745  1  0.35944700  0.83358400  0.54880400  1
  H  746  1  0.27701300  0.83891000  0.58074400  1
  H  747  1  0.33399800  0.66812400  0.54040500  1
  H  750  1  0.23905200  0.77042200  0.57169900  1
  H  751  1  0.25123600  0.78826100  0.59046000  1
  H  752  1  0.25003000  0.72520600  0.59040700  1
  H  753  1  0.28928000  0.74192700  0.59627100  1
  H  763  1  0.92444500  0.95813800  0.34008600  1
  H  770  1  0.02272000  0.89507600  0.29689100  1
  H  771  1  0.08041800  0.88829500  0.29742200  1
  H  772  1  0.08865800  0.96550800  0.33216300  1
  H  773  1  0.91399400  0.91817000  0.29307200  1
  H  776  1  0.01899800  0.00454300  0.32657800  1
  H  777  1  0.03927300  0.98906500  0.34414500  1
  H  778  1  0.97650700  0.98895200  0.34616200  1
  H  779  1  0.99421800  0.94880900  0.34928200  1
  H  789  1  0.57493600  0.04119900  0.84004800  1
  H  796  1  0.47662500  0.10423300  0.79686200  1
  H  797  1  0.41892100  0.11099600  0.79740700  1
  H  798  1  0.41073200  0.03375300  0.83213700  1
  H  799  1  0.58536900  0.08122800  0.79304700  1
  H  802  1  0.48040500  0.99474900  0.82651600  1
  H  803  1  0.46013000  0.01017000  0.84409300  1
  H  804  1  0.52290100  0.01030500  0.84609900  1
  H  805  1  0.50516800  0.05042500  0.84925700  1
  H  815  1  0.30954100  0.32169800  0.41459700  1
  H  822  1  0.32689100  0.21533900  0.46122400  1
  H  823  1  0.33868000  0.15869200  0.45668700  1
  H  824  1  0.28336600  0.16206300  0.41308100  1
  H  825  1  0.29887500  0.32626200  0.46545500  1
  H  828  1  0.24465300  0.23467100  0.41644700  1
  H  829  1  0.26796500  0.21328900  0.40142700  1
  H  830  1  0.27933500  0.27469800  0.40144400  1
  H  831  1  0.31631200  0.25139400  0.40518500  1
  H  841  1  0.19024400  0.67763000  0.91468500  1
  H  848  1  0.17181100  0.78396400  0.96122300  1
  H  849  1  0.16013200  0.84059600  0.95665500  1
  H  850  1  0.21618700  0.83726900  0.91327800  1
  H  851  1  0.19974900  0.67307600  0.96559900  1
  H  854  1  0.25504900  0.76475100  0.91689000  1
  H  855  1  0.23205100  0.78606900  0.90173500  1
  H  856  1  0.22083700  0.72462500  0.90171200  1
  H  857  1  0.18371500  0.74785400  0.90521600  1
  H  867  1  0.57588000  0.96169500  0.16760100  1
  H  874  1  0.46931100  0.90607800  0.20988500  1
  H  875  1  0.41278700  0.89647900  0.20574300  1
  H  876  1  0.41287200  0.96649500  0.16740500  1
  H  877  1  0.57775400  0.92448300  0.21538600  1
  H  880  1  0.48013500  0.00973600  0.17667400  1
  H  881  1  0.46248900  0.99310600  0.15871600  1
  H  882  1  0.52517800  0.99190100  0.15894300  1
  H  883  1  0.50753500  0.95160500  0.15620800  1
  H  893  1  0.92342500  0.03744800  0.66764800  1
  H  900  1  0.03003300  0.09334500  0.70987100  1
  H  901  1  0.08655500  0.10292500  0.70572500  1
  H  902  1  0.08646500  0.03281100  0.66742500  1
  H  903  1  0.92159200  0.07521000  0.71533100  1
  H  906  1  0.01926700  0.98956900  0.67677700  1
  H  907  1  0.03685400  0.00609700  0.65878300  1
  H  908  1  0.97415000  0.00718300  0.65904900  1
  H  909  1  0.99173100  0.04747600  0.65620800  1
  H  919  1  0.78142900  0.67021800  0.90923800  1
  H  926  1  0.82470900  0.76657400  0.95813700  1
  H  927  1  0.83158800  0.82366700  0.95755300  1
  H  928  1  0.76166700  0.83148300  0.91935100  1
  H  929  1  0.81414800  0.65767800  0.95744900  1
  H  932  1  0.72321000  0.75882400  0.92304600  1
  H  933  1  0.74009100  0.78207300  0.90671300  1
  H  934  1  0.74550700  0.71960200  0.90349700  1
  H  935  1  0.78440500  0.74073700  0.90227900  1
  H  945  1  0.71773600  0.32910100  0.40917200  1
  H  952  1  0.67459700  0.23278900  0.45810300  1
  H  953  1  0.66774300  0.17570400  0.45754600  1
  H  954  1  0.73759600  0.16786800  0.41932000  1
  H  955  1  0.68512300  0.34167800  0.45739900  1
  H  958  1  0.77603300  0.24055600  0.42296700  1
  H  959  1  0.75911700  0.21726500  0.40665700  1
  H  960  1  0.75363300  0.27971600  0.40341300  1
  H  961  1  0.71474500  0.25855300  0.40224700  1
  H  971  1  0.71566900  0.67293300  0.58338100  1
  H  978  1  0.66038500  0.78102600  0.54224500  1
  H  979  1  0.65224200  0.83774300  0.54619200  1
  H  980  1  0.72313900  0.83690400  0.58415200  1
  H  981  1  0.67802100  0.67313600  0.53565800  1
  H  984  1  0.76453500  0.76865900  0.57525300  1
  H  985  1  0.74764900  0.78604400  0.59321900  1
  H  986  1  0.74592000  0.72328700  0.59258700  1
  H  987  1  0.70578900  0.74129300  0.59530300  1
  H  997  1  0.78352900  0.32643500  0.08336800  1
  H  1004  1  0.83900800  0.21834300  0.04226300  1
  H  1005  1  0.84715400  0.16162600  0.04621000  1
  H  1006  1  0.77618600  0.16244500  0.08414400  1
  H  1007  1  0.82153800  0.32623000  0.03571300  1
  H  1010  1  0.73477500  0.23064200  0.07518700  1
  H  1011  1  0.75158400  0.21329400  0.09317900  1
  H  1012  1  0.75322200  0.27606400  0.09252400  1
  H  1013  1  0.79335100  0.25810500  0.09532000  1
  H  1023  1  0.42027200  0.44288000  0.84155600  1
  H  1030  1  0.51129300  0.43312800  0.78844000  1
  H  1031  1  0.56862300  0.42316300  0.78857500  1
  H  1032  1  0.57819200  0.47701100  0.83234700  1
  H  1033  1  0.40042200  0.45585600  0.79168800  1
  H  1036  1  0.50381800  0.51224500  0.83546300  1
  H  1037  1  0.53007300  0.48808300  0.84817600  1
  H  1038  1  0.46927500  0.47507700  0.85203500  1
  H  1039  1  0.49234700  0.43920200  0.84609500  1
  H  1049  1  0.07895000  0.55635600  0.34153200  1
  H  1056  1  0.98802300  0.56612600  0.28841800  1
  H  1057  1  0.93071000  0.57614600  0.28856200  1
  H  1058  1  0.92108800  0.52218500  0.33229500  1
  H  1059  1  0.09887600  0.54340500  0.29166900  1
  H  1062  1  0.99546800  0.48691800  0.33540400  1
  H  1063  1  0.96918500  0.51105000  0.34811600  1
  H  1064  1  0.02996400  0.52409800  0.35199500  1
  H  1065  1  0.00687800  0.55996300  0.34605200  1
  H  1075  1  0.07392300  0.46057800  0.66209100  1
  H  1082  1  0.97220900  0.43335100  0.70933600  1
  H  1083  1  0.91632400  0.41741100  0.70539400  1
  H  1084  1  0.91255100  0.47639700  0.66292700  1
  H  1085  1  0.07987000  0.46895500  0.71303800  1
  H  1088  1  0.98211400  0.51982500  0.66560600  1
  H  1089  1  0.96192500  0.49545300  0.65059200  1
  H  1090  1  0.02422400  0.48945600  0.64985400  1
  H  1091  1  0.00416600  0.45046300  0.65320100  1
  H  1101  1  0.42532700  0.53869800  0.16210900  1
  H  1108  1  0.52705400  0.56601500  0.20933900  1
  H  1109  1  0.58294400  0.58200800  0.20539200  1
  H  1110  1  0.58672200  0.52303100  0.16291800  1
  H  1111  1  0.41942500  0.53036900  0.21305700  1
  H  1114  1  0.51722000  0.47954100  0.16562200  1
  H  1115  1  0.53735000  0.50391500  0.15059000  1
  H  1116  1  0.47503200  0.50980000  0.14987600  1
  H  1117  1  0.49503500  0.54883600  0.15318300  1
  H  1127  1  0.92370600  0.07245700  0.10442500  1
  H  1134  1  0.02009200  0.04994300  0.05294100  1
  H  1135  1  0.07768400  0.04466600  0.04934500  1
  H  1136  1  0.09396600  0.08055400  0.09705300  1
  H  1137  1  0.92332000  0.10964000  0.05655500  1
  H  1140  1  0.02757400  0.10953800  0.10799700  1
  H  1141  1  0.04339500  0.07158200  0.11601700  1
  H  1142  1  0.98010200  0.07833000  0.11864900  1
  H  1143  1  0.99292000  0.04076300  0.10910200  1
  H  1153  1  0.57567000  0.92688000  0.60442100  1
  H  1160  1  0.47926100  0.94940000  0.55294200  1
  H  1161  1  0.42167500  0.95464300  0.54934500  1
  H  1162  1  0.40541200  0.91876900  0.59705800  1
  H  1163  1  0.57602800  0.88971500  0.55654300  1
  H  1166  1  0.47178800  0.88981000  0.60799900  1
  H  1167  1  0.45598600  0.92776900  0.61602500  1
  H  1168  1  0.51927600  0.92100300  0.61865200  1
  H  1169  1  0.50647000  0.95857400  0.60910600  1
  H  1179  1  0.17508400  0.66724700  0.35365600  1
  H  1186  1  0.19199400  0.76301700  0.30178500  1
  H  1187  1  0.19852300  0.82042300  0.29820600  1
  H  1188  1  0.16525100  0.83732400  0.34629900  1
  H  1189  1  0.13566500  0.66511000  0.30621300  1
  H  1192  1  0.13552700  0.77060500  0.35741600  1
  H  1193  1  0.17351500  0.78697800  0.36512800  1
  H  1194  1  0.16770000  0.72366800  0.36789800  1
  H  1195  1  0.20474800  0.73678700  0.35797100  1
  H  1205  1  0.32412800  0.33201900  0.85365400  1
  H  1212  1  0.30728200  0.23621900  0.80178600  1
  H  1213  1  0.30079100  0.17881800  0.79820500  1
  H  1214  1  0.33407600  0.16192700  0.84629900  1
  H  1215  1  0.36356000  0.33417300  0.80621800  1
  H  1218  1  0.36374300  0.22867900  0.85741800  1
  H  1219  1  0.32576600  0.21228000  0.86512900  1
  H  1220  1  0.33154000  0.27559800  0.86789400  1
  H  1221  1  0.29450100  0.26244900  0.85797100  1
  H  1231  1  0.59551700  0.06158400  0.40777300  1
  H  1238  1  0.48170000  0.10823000  0.44855600  1
  H  1239  1  0.42419500  0.10796300  0.44684700  1
  H  1240  1  0.42971100  0.07633000  0.39800200  1
  H  1241  1  0.59131400  0.12704400  0.44772200  1
  H  1244  1  0.50352200  0.10052900  0.38835800  1
  H  1245  1  0.48382500  0.06103600  0.38672000  1
  H  1246  1  0.54636800  0.05753400  0.38998900  1
  H  1247  1  0.52430600  0.03514800  0.40513900  1
  H  1257  1  0.90373800  0.93782900  0.90775900  1
  H  1264  1  0.01754800  0.89123600  0.94852500  1
  H  1265  1  0.07504900  0.89146600  0.94682300  1
  H  1266  1  0.06957600  0.92306200  0.89797400  1
  H  1267  1  0.90798900  0.87234700  0.94769900  1
  H  1270  1  0.99576600  0.89893100  0.88831300  1
  H  1271  1  0.01545000  0.93843600  0.88670300  1
  H  1272  1  0.95289000  0.94188500  0.88996200  1
  H  1273  1  0.97493700  0.96427300  0.90511600  1
  H  1283  1  0.31660500  0.64778800  0.15599400  1
  H  1290  1  0.36257800  0.76011100  0.19693100  1
  H  1291  1  0.36016600  0.81762500  0.19610200  1
  H  1292  1  0.32882500  0.81430800  0.14716900  1
  H  1293  1  0.38420900  0.65184800  0.19510800  1
  H  1296  1  0.35436600  0.74150100  0.13650300  1
  H  1297  1  0.31428300  0.76012900  0.13538200  1
  H  1298  1  0.31307600  0.69719000  0.13794000  1
  H  1299  1  0.28998700  0.71786100  0.15330700  1
  H  1309  1  0.18266100  0.35154100  0.65596300  1
  H  1316  1  0.13680300  0.23920800  0.69691600  1
  H  1317  1  0.13925400  0.18169500  0.69609200  1
  H  1318  1  0.17053000  0.18500200  0.64714800  1
  H  1319  1  0.11509100  0.34744500  0.69509000  1
  H  1322  1  0.14491500  0.25778700  0.63648700  1
  H  1323  1  0.18501200  0.23919600  0.63534800  1
  H  1324  1  0.18616100  0.30213900  0.63790000  1
  H  1325  1  0.20931400  0.28149700  0.65325200  1
  H  1335  1  0.79761200  0.32654000  0.66154500  1
  H  1342  1  0.87708700  0.22710100  0.69586900  1
  H  1343  1  0.87151300  0.16962800  0.70117400  1
  H  1344  1  0.80722900  0.16007200  0.66080700  1
  H  1345  1  0.89960000  0.33089200  0.67414100  1
  H  1348  1  0.81698600  0.22840000  0.64175700  1
  H  1349  1  0.78083100  0.21003400  0.65041400  1
  H  1350  1  0.77808800  0.27277700  0.64985200  1
  H  1351  1  0.77457800  0.25663000  0.66983500  1
  H  1361  1  0.70170100  0.67285100  0.16153600  1
  H  1368  1  0.62211100  0.77226100  0.19577700  1
  H  1369  1  0.62769500  0.82972400  0.20110400  1
  H  1370  1  0.69206200  0.83931600  0.16077100  1
  H  1371  1  0.59966800  0.66847900  0.17405600  1
  H  1374  1  0.68234700  0.77099100  0.14170200  1
  H  1375  1  0.71847500  0.78936300  0.15038300  1
  H  1376  1  0.72123100  0.72662100  0.14982500  1
  H  1377  1  0.72467500  0.74276400  0.16980900  1
  H  1387  1  0.68414100  0.34293300  0.83887800  1
  H  1394  1  0.64254000  0.22756200  0.79724000  1
  H  1395  1  0.64254000  0.16979700  0.79963000  1
  H  1396  1  0.67082600  0.17791100  0.84886000  1
  H  1397  1  0.61926300  0.33855200  0.79873900  1
  H  1400  1  0.64645200  0.25145200  0.85741300  1
  H  1401  1  0.68594200  0.23199800  0.85975400  1
  H  1402  1  0.69015300  0.29408700  0.85609800  1
  H  1403  1  0.71248500  0.27172200  0.84103000  1
  H  1413  1  0.81533300  0.65642200  0.33892000  1
  H  1420  1  0.85701400  0.77177700  0.29730200  1
  H  1421  1  0.85696700  0.82954100  0.29968300  1
  H  1422  1  0.82863200  0.82144200  0.34890800  1
  H  1423  1  0.88022300  0.66079900  0.29878600  1
  H  1426  1  0.85306900  0.74790400  0.35746800  1
  H  1427  1  0.81357700  0.76735100  0.35981500  1
  H  1428  1  0.80938600  0.70525800  0.35616000  1
  H  1429  1  0.78703100  0.72761600  0.34109600  1
  H  1439  1  0.42507100  0.55183200  0.58761100  1
  H  1446  1  0.52631300  0.62894500  0.55354400  1
  H  1447  1  0.58374400  0.62252200  0.54840400  1
  H  1448  1  0.59180500  0.55791900  0.58875500  1
  H  1449  1  0.42330500  0.65387200  0.57490000  1
  H  1452  1  0.52369000  0.56884100  0.60768800  1
  H  1453  1  0.54115800  0.53230000  0.59897000  1
  H  1454  1  0.47829900  0.53122500  0.59961200  1
  H  1455  1  0.49435600  0.52712400  0.57963900  1
  H  1465  1  0.07432600  0.44741600  0.08759800  1
  H  1472  1  0.97302500  0.37048100  0.05346000  1
  H  1473  1  0.91558500  0.37692200  0.04834600  1
  H  1474  1  0.90759600  0.44142200  0.08873900  1
  H  1475  1  0.07603800  0.34540800  0.07482000  1
  H  1478  1  0.97571600  0.43044200  0.10764600  1
  H  1479  1  0.95826600  0.46701100  0.09894600  1
  H  1480  1  0.02111600  0.46806800  0.09957700  1
  H  1481  1  0.00505600  0.47217600  0.07960500  1
  H  1491  1  0.08437600  0.56720000  0.91020600  1
  H  1498  1  0.96849100  0.60720100  0.95241900  1
  H  1499  1  0.91066500  0.60637200  0.94995200  1
  H  1500  1  0.91962500  0.57991300  0.90054900  1
  H  1501  1  0.08031800  0.62950800  0.95125800  1
  H  1504  1  0.99305300  0.60592100  0.89239000  1
  H  1505  1  0.97357100  0.56664200  0.88938500  1
  H  1506  1  0.03546900  0.56184400  0.89308100  1
  H  1507  1  0.01302400  0.53892300  0.90791400  1
  H  1517  1  0.41485300  0.43216100  0.41015900  1
  H  1524  1  0.53072900  0.39198500  0.45231300  1
  H  1525  1  0.58855600  0.39284100  0.44985100  1
  H  1526  1  0.57961800  0.41944000  0.40046500  1
  H  1527  1  0.41895900  0.36971700  0.45116500  1
  H  1530  1  0.50618500  0.39343800  0.39228600  1
  H  1531  1  0.52565700  0.43272700  0.38930300  1
  H  1532  1  0.46374700  0.43747900  0.39300500  1
  H  1533  1  0.48619000  0.46040000  0.40783900  1
  H  1543  1  0.22195400  0.01899900  0.03203200  1
  H  1550  1  0.12969700  0.02144700  0.97824900  1
  H  1551  1  0.12091700  0.98724100  0.95626500  1
  H  1552  1  0.22229300  0.95708800  0.95719500  1
  H  1553  1  0.14997600  0.09068700  0.01837800  1
  H  1556  1  0.25482800  0.01354800  0.98100000  1
  H  1557  1  0.25502900  0.96928500  0.98124800  1
  H  1558  1  0.25669000  0.99564600  0.00914600  1
  H  1559  1  0.22271700  0.96763900  0.00660900  1
  H  1569  1  0.27737100  0.98022200  0.53204500  1
  H  1576  1  0.36964000  0.97795000  0.47829000  1
  H  1577  1  0.37840000  0.01217100  0.45631600  1
  H  1578  1  0.27698800  0.04218800  0.45721600  1
  H  1579  1  0.34942100  0.90861300  0.51838200  1
  H  1582  1  0.24448900  0.98569300  0.48101100  1
  H  1583  1  0.24426100  0.02995600  0.48127000  1
  H  1584  1  0.24261300  0.00356500  0.50916200  1
  H  1585  1  0.27657000  0.03159200  0.50663200  1
  H  1595  1  0.22994800  0.96499700  0.28198500  1
  H  1602  1  0.23005700  0.87206900  0.22827300  1
  H  1603  1  0.26504100  0.86338900  0.20644200  1
  H  1604  1  0.29484700  0.96480900  0.20767100  1
  H  1605  1  0.15760400  0.89438400  0.26757700  1
  H  1608  1  0.23800700  0.99727700  0.23112800  1
  H  1609  1  0.28225900  0.99727200  0.23176000  1
  H  1610  1  0.25513700  0.99899800  0.25943500  1
  H  1611  1  0.28276700  0.96466100  0.25708000  1
  H  1621  1  0.26941800  0.03424600  0.78197600  1
  H  1628  1  0.26932000  0.12719200  0.72826700  1
  H  1629  1  0.23433800  0.13588900  0.70643100  1
  H  1630  1  0.20447700  0.03448400  0.70766800  1
  H  1631  1  0.34174400  0.10487500  0.76757000  1
  H  1634  1  0.26132400  0.00200200  0.73110700  1
  H  1635  1  0.21707400  0.00199700  0.73175100  1
  H  1636  1  0.24424400  0.00024100  0.75941800  1
  H  1637  1  0.21658800  0.03456300  0.75708400  1
  H  1647  1  0.77916700  0.98079600  0.96566700  1
  H  1654  1  0.86987800  0.98078600  0.02070600  1
  H  1655  1  0.87740800  0.01456500  0.04306900  1
  H  1656  1  0.77707800  0.04743200  0.03992500  1
  H  1657  1  0.84438400  0.90526400  0.98202300  1
  H  1660  1  0.74506100  0.99324400  0.01529200  1
  H  1661  1  0.74726000  0.03745300  0.01463100  1
  H  1662  1  0.74698000  0.01072800  0.98692400  1
  H  1663  1  0.78271900  0.03608600  0.99017500  1
  H  1673  1  0.72010800  0.01853700  0.46564600  1
  H  1680  1  0.62946300  0.01857500  0.52070100  1
  H  1681  1  0.62194100  0.98479400  0.54306500  1
  H  1682  1  0.72226000  0.95191800  0.53990800  1
  H  1683  1  0.65495700  0.09410900  0.48202100  1
  H  1686  1  0.75427700  0.00607800  0.51525600  1
  H  1687  1  0.75204300  0.96186800  0.51460200  1
  H  1688  1  0.75229600  0.98857200  0.48689100  1
  H  1689  1  0.71653900  0.96324800  0.49016100  1
  H  1699  1  0.75763100  0.04673200  0.71352500  1
  H  1706  1  0.78209800  0.09579300  0.78217000  1
  H  1707  1  0.74969500  0.09659500  0.80527700  1
  H  1708  1  0.67939100  0.03307800  0.78282600  1
  H  1709  1  0.84196600  0.09022600  0.73543200  1
  H  1712  1  0.72885100  0.99667000  0.75641800  1
  H  1713  1  0.68742500  0.01219000  0.75629600  1
  H  1714  1  0.71614000  0.01949600  0.72970500  1
  H  1715  1  0.70307400  0.05825300  0.73799200  1
  H  1725  1  0.74170200  0.95256200  0.21353800  1
  H  1732  1  0.71727800  0.90338000  0.28217600  1
  H  1733  1  0.74968800  0.90259100  0.30528000  1
  H  1734  1  0.81992400  0.96621700  0.28284400  1
  H  1735  1  0.65741400  0.90893100  0.23542300  1
  H  1738  1  0.77039700  0.00257500  0.25645800  1
  H  1739  1  0.81185300  0.98713400  0.25632100  1
  H  1740  1  0.78314000  0.97983900  0.22973000  1
  H  1741  1  0.79628200  0.94108600  0.23799100  1
  H  1751  1  0.70856500  0.51032800  0.53573500  1
  H  1758  1  0.65647800  0.53495000  0.46761800  1
  H  1759  1  0.65654800  0.50299100  0.44425500  1
  H  1760  1  0.72534600  0.43634900  0.46563800  1
  H  1761  1  0.66176600  0.59402700  0.51487600  1
  H  1764  1  0.75920500  0.48669100  0.49243100  1
  H  1765  1  0.74630100  0.44437800  0.49204800  1
  H  1766  1  0.73728500  0.47083600  0.51901200  1
  H  1767  1  0.69924900  0.45631200  0.51051100  1
  H  1777  1  0.79070600  0.48904300  0.03578100  1
  H  1784  1  0.84263800  0.46440300  0.96765700  1
  H  1785  1  0.84256200  0.49633200  0.94429300  1
  H  1786  1  0.77384200  0.56303700  0.96569400  1
  H  1787  1  0.83739200  0.40531200  0.01489200  1
  H  1790  1  0.73995800  0.51272800  0.99250400  1
  H  1791  1  0.75290900  0.55502100  0.99210900  1
  H  1792  1  0.76196500  0.52855700  0.01907200  1
  H  1793  1  0.79999400  0.54304200  0.01054600  1
  H  1803  1  0.72534100  0.47138200  0.78213600  1
  H  1810  1  0.73600800  0.37675700  0.72939600  1
  H  1811  1  0.77309500  0.36955200  0.70800400  1
  H  1812  1  0.79631700  0.47272700  0.70893200  1
  H  1813  1  0.65319600  0.40314000  0.76512200  1
  H  1816  1  0.73887900  0.50270500  0.73216900  1
  H  1817  1  0.78307800  0.50362000  0.73351700  1
  H  1818  1  0.75478300  0.50408800  0.76082800  1
  H  1819  1  0.78242100  0.46972600  0.75856300  1
  H  1829  1  0.77395400  0.52807600  0.28215100  1
  H  1836  1  0.76322000  0.62274000  0.22941100  1
  H  1837  1  0.72614000  0.62991900  0.20800700  1
  H  1838  1  0.70295400  0.52673400  0.20895200  1
  H  1839  1  0.84607500  0.59633400  0.26513100  1
  H  1842  1  0.76039400  0.49679600  0.23219100  1
  H  1843  1  0.71619500  0.49585100  0.23354100  1
  H  1844  1  0.74449000  0.49539600  0.26085400  1
  H  1845  1  0.71683400  0.52974500  0.25858900  1
  H  1855  1  0.28680800  0.47785800  0.46584100  1
  H  1862  1  0.37835200  0.49015000  0.51996900  1
  H  1863  1  0.38429400  0.52732500  0.54129000  1
  H  1864  1  0.28162500  0.55200200  0.53841800  1
  H  1865  1  0.35468200  0.40685700  0.48427100  1
  H  1868  1  0.25269700  0.49405300  0.51516200  1
  H  1869  1  0.25238300  0.53818700  0.51334300  1
  H  1870  1  0.25329500  0.50857000  0.48634700  1
  H  1871  1  0.28768000  0.53609000  0.48881600  1
  H  1881  1  0.21242700  0.52127300  0.96580000  1
  H  1888  1  0.12110600  0.50912100  0.02000500  1
  H  1889  1  0.11517400  0.47198300  0.04133400  1
  H  1890  1  0.21779200  0.44712600  0.03838700  1
  H  1891  1  0.14470300  0.59234300  0.98430300  1
  H  1894  1  0.24674800  0.50496500  0.01508300  1
  H  1895  1  0.24693100  0.46083100  0.01326300  1
  H  1896  1  0.24596800  0.49046600  0.98627000  1
  H  1897  1  0.21153200  0.46302500  0.98877500  1
  H  1907  1  0.26882400  0.52725500  0.21440400  1
  H  1914  1  0.26767900  0.61769900  0.26998000  1
  H  1915  1  0.23456900  0.62350100  0.29274800  1
  H  1916  1  0.20422100  0.52249800  0.28896700  1
  H  1917  1  0.34380500  0.59316000  0.23064800  1
  H  1920  1  0.25802700  0.49279800  0.26352100  1
  H  1921  1  0.21375200  0.49394000  0.26335500  1
  H  1922  1  0.23870100  0.49542300  0.23535200  1
  H  1923  1  0.21325500  0.53078700  0.23931500  1
  H  1933  1  0.23045000  0.47207900  0.71437900  1
  H  1940  1  0.23160100  0.38161600  0.76994700  1
  H  1941  1  0.26469300  0.37580500  0.79272300  1
  H  1942  1  0.29508200  0.47680100  0.78894500  1
  H  1943  1  0.15547800  0.40617100  0.73063000  1
  H  1946  1  0.24128200  0.50651300  0.76350800  1
  H  1947  1  0.28555800  0.50537100  0.76333000  1
  H  1948  1  0.26056500  0.50392000  0.73533300  1
  H  1949  1  0.28602900  0.46856100  0.73927600  1
  H  1959  1  0.26355800  0.90728800  0.14323000  1
  H  1966  1  0.27333300  0.04448600  0.11737400  1
  H  1967  1  0.24074100  0.07750000  0.10003600  1
  H  1968  1  0.19257400  0.99073100  0.08244700  1
  H  1969  1  0.34762500  0.97035700  0.14008000  1
  H  1972  1  0.24088600  0.93206300  0.09406100  1
  H  1973  1  0.19773400  0.93928000  0.09745100  1
  H  1974  1  0.22456500  0.90768900  0.12025200  1
  H  1975  1  0.20685700  0.94594600  0.12693000  1
  H  1985  1  0.23580100  0.09197200  0.64322000  1
  H  1992  1  0.22603000  0.95475400  0.61738200  1
  H  1993  1  0.25863100  0.92174000  0.60004400  1
  H  1994  1  0.30675100  0.00851900  0.58243900  1
  H  1995  1  0.15172500  0.02891000  0.64008600  1
  H  1998  1  0.25843300  0.06718400  0.59405900  1
  H  1999  1  0.30159000  0.05996600  0.59743800  1
  H  2000  1  0.27480100  0.09154600  0.62025000  1
  H  2001  1  0.29249200  0.05327300  0.62692000  1
  H  2011  1  0.33857200  0.00935300  0.39333800  1
  H  2018  1  0.20277400  0.01732600  0.36648600  1
  H  2019  1  0.17000200  0.98411500  0.34945000  1
  H  2020  1  0.25673500  0.93444800  0.33279000  1
  H  2021  1  0.27540700  0.09300100  0.38843300  1
  H  2024  1  0.31536500  0.98298500  0.34397700  1
  H  2025  1  0.30795300  0.94020900  0.34826900  1
  H  2026  1  0.33951200  0.96943100  0.37049200  1
  H  2027  1  0.30146700  0.95178800  0.37749100  1
  H  2037  1  0.16078000  0.98983400  0.89329800  1
  H  2044  1  0.29665300  0.98189300  0.86648600  1
  H  2045  1  0.32940600  0.01512300  0.84944700  1
  H  2046  1  0.24264300  0.06471500  0.83277200  1
  H  2047  1  0.22401200  0.90622100  0.88848200  1
  H  2050  1  0.18405900  0.01607600  0.84394700  1
  H  2051  1  0.19140000  0.05887800  0.84820900  1
  H  2052  1  0.15986100  0.02970500  0.87044600  1
  H  2053  1  0.19788200  0.04739400  0.87744200  1
  H  2063  1  0.73527400  0.08352900  0.85549200  1
  H  2070  1  0.71621300  0.95126100  0.88508900  1
  H  2071  1  0.74772600  0.91562500  0.90153300  1
  H  2072  1  0.81165000  0.99587400  0.91377000  1
  H  2073  1  0.64637500  0.03047800  0.86466000  1
  H  2076  1  0.76927700  0.05930700  0.90404700  1
  H  2077  1  0.80945800  0.04645200  0.89747500  1
  H  2078  1  0.77887700  0.08133200  0.87683200  1
  H  2079  1  0.79063500  0.04157400  0.86919700  1
  H  2089  1  0.76405700  0.91580500  0.35549400  1
  H  2096  1  0.78300200  0.04812600  0.38504600  1
  H  2097  1  0.75149700  0.08375700  0.40149500  1
  H  2098  1  0.68760500  0.00349200  0.41375100  1
  H  2099  1  0.85291600  0.96893200  0.36466400  1
  H  2102  1  0.72995600  0.94007100  0.40403000  1
  H  2103  1  0.68979000  0.95292500  0.39743600  1
  H  2104  1  0.72040400  0.91802500  0.37681400  1
  H  2105  1  0.70867000  0.95778000  0.36916600  1
  H  2115  1  0.67151800  0.99297100  0.60401100  1
  H  2122  1  0.80771200  0.97955800  0.63268300  1
  H  2123  1  0.83998500  0.00976400  0.65122200  1
  H  2124  1  0.75561000  0.06792300  0.66358400  1
  H  2125  1  0.73065000  0.90692200  0.61019100  1
  H  2128  1  0.69548400  0.02417400  0.65158300  1
  H  2129  1  0.70672100  0.06565500  0.64632500  1
  H  2130  1  0.67477400  0.03693800  0.62422500  1
  H  2131  1  0.71487800  0.05017400  0.61769600  1
  H  2141  1  0.82781300  0.00637200  0.10401400  1
  H  2148  1  0.69166100  0.01987100  0.13272400  1
  H  2149  1  0.65938300  0.98967600  0.15126400  1
  H  2150  1  0.74372100  0.93142700  0.16358700  1
  H  2151  1  0.76875100  0.09246000  0.11022200  1
  H  2154  1  0.80387200  0.97516000  0.15158400  1
  H  2155  1  0.79260400  0.93368600  0.14632600  1
  H  2156  1  0.82454400  0.96239100  0.12421900  1
  H  2157  1  0.78442300  0.94918700  0.11770000  1
  H  2167  1  0.75934200  0.42052700  0.64597600  1
  H  2174  1  0.77086100  0.55675700  0.61797000  1
  H  2175  1  0.74118100  0.58938000  0.59943600  1
  H  2176  1  0.68381800  0.50507000  0.58600400  1
  H  2177  1  0.84450600  0.48064800  0.63908300  1
  H  2180  1  0.72658400  0.44484600  0.59803500  1
  H  2181  1  0.68534300  0.45604400  0.60372900  1
  H  2182  1  0.71541600  0.42300200  0.62523500  1
  H  2183  1  0.70135800  0.46244400  0.63228100  1
  H  2193  1  0.73998100  0.57885100  0.14599400  1
  H  2200  1  0.72861300  0.44254400  0.11805400  1
  H  2201  1  0.75828800  0.40993100  0.09951300  1
  H  2202  1  0.81554600  0.49428300  0.08603900  1
  H  2203  1  0.65487200  0.51863700  0.13912500  1
  H  2206  1  0.77278200  0.55447700  0.09807300  1
  H  2207  1  0.81402800  0.54330700  0.10377500  1
  H  2208  1  0.78393400  0.57635900  0.12527000  1
  H  2209  1  0.79800500  0.53692700  0.13232500  1
  H  2219  1  0.82807600  0.51105700  0.89330900  1
  H  2226  1  0.69647300  0.52835700  0.86346600  1
  H  2227  1  0.66134700  0.49701900  0.84679000  1
  H  2228  1  0.74241600  0.43460800  0.83394400  1
  H  2229  1  0.77349800  0.59906200  0.88419900  1
  H  2232  1  0.80527200  0.47708400  0.84420200  1
  H  2233  1  0.79277500  0.43677700  0.85075100  1
  H  2234  1  0.82744200  0.46806800  0.87136500  1
  H  2235  1  0.78805500  0.45521700  0.87903000  1
  H  2245  1  0.67118500  0.48831100  0.39327300  1
  H  2252  1  0.80282200  0.47100400  0.36345500  1
  H  2253  1  0.83796800  0.50233500  0.34678400  1
  H  2254  1  0.75694800  0.56482500  0.33396100  1
  H  2255  1  0.72574700  0.40030900  0.38414600  1
  H  2258  1  0.69406800  0.52236500  0.34418900  1
  H  2259  1  0.70657400  0.56265600  0.35075600  1
  H  2260  1  0.67186600  0.53133800  0.37134800  1
  H  2261  1  0.71124300  0.54417100  0.37903000  1
  H  2271  1  0.24518300  0.57338800  0.35345500  1
  H  2278  1  0.23311300  0.43840100  0.38279900  1
  H  2279  1  0.26253100  0.40645900  0.40151700  1
  H  2280  1  0.32101700  0.49058600  0.41402700  1
  H  2281  1  0.16029400  0.51277600  0.36015500  1
  H  2284  1  0.27773700  0.55075000  0.40168700  1
  H  2285  1  0.31897500  0.53936200  0.39609000  1
  H  2286  1  0.28884200  0.57169700  0.37434100  1
  H  2287  1  0.30298300  0.53207400  0.36759000  1
  H  2297  1  0.25401900  0.42594800  0.85343500  1
  H  2304  1  0.26602600  0.56101000  0.88275200  1
  H  2305  1  0.23664800  0.59292000  0.90150300  1
  H  2306  1  0.17820600  0.50876000  0.91400500  1
  H  2307  1  0.33888800  0.48659800  0.86011300  1
  H  2310  1  0.22143700  0.44862900  0.90163800  1
  H  2311  1  0.18020200  0.46002700  0.89604000  1
  H  2312  1  0.21031300  0.42769900  0.87428400  1
  H  2313  1  0.19620700  0.46733900  0.86754300  1
  H  2323  1  0.17003900  0.48310100  0.10218500  1
  H  2330  1  0.30349400  0.46433000  0.13199800  1
  H  2331  1  0.33715900  0.49331400  0.15014500  1
  H  2332  1  0.25620100  0.55666900  0.16201000  1
  H  2333  1  0.22627200  0.39538200  0.10919700  1
  H  2336  1  0.19370200  0.51489000  0.15047000  1
  H  2337  1  0.20674500  0.55556400  0.14476500  1
  H  2338  1  0.17317600  0.52649600  0.12313400  1
  H  2339  1  0.21332200  0.53889300  0.11629300  1
  H  2349  1  0.32929600  0.51614500  0.60217700  1
  H  2356  1  0.19576200  0.53490300  0.63193500  1
  H  2357  1  0.16210300  0.50595200  0.65009800  1
  H  2358  1  0.24307800  0.44264700  0.66199900  1
  H  2359  1  0.27302300  0.60385400  0.60913800  1
  H  2362  1  0.30556600  0.48442800  0.65045100  1
  H  2363  1  0.29254400  0.44373400  0.64476400  1
  H  2364  1  0.32611200  0.47275700  0.62312100  1
  H  2365  1  0.28596900  0.46034700  0.61628300  1
  C  1  1  0.19182800  0.05843800  0.07714300  1
  C  2  1  0.19989100  0.04744000  0.05918600  1
  C  3  1  0.15359600  0.05188200  0.08074400  1
  C  4  1  0.13009900  0.07063800  0.06852400  1
  C  7  1  0.14056000  0.05930300  0.05081100  1
  C  8  1  0.17807100  0.06624700  0.04616300  1
  C  13  1  0.18499400  0.10465200  0.04820000  1
  C  14  1  0.17542800  0.11808400  0.06551300  1
  C  17  1  0.13789400  0.10907800  0.06969400  1
  C  20  1  0.19757500  0.09770300  0.07793100  1
  C  23  1  0.30753500  0.94081000  0.57714900  1
  C  24  1  0.29946300  0.95179300  0.55919200  1
  C  25  1  0.34576200  0.94739900  0.58075000  1
  C  26  1  0.36927600  0.92866600  0.56853100  1
  C  29  1  0.35880500  0.93998600  0.55081700  1
  C  30  1  0.32130200  0.93300500  0.54616900  1
  C  35  1  0.31442100  0.89459200  0.54820700  1
  C  36  1  0.32399000  0.88117300  0.56552300  1
  C  39  1  0.36151600  0.89021900  0.56970300  1
  C  42  1  0.30182100  0.90154100  0.57794000  1
  C  45  1  0.18917800  0.93481100  0.32674300  1
  C  46  1  0.20069700  0.94285200  0.30887200  1
  C  47  1  0.19470400  0.89636100  0.33018300  1
  C  48  1  0.17539100  0.87353000  0.31781000  1
  C  51  1  0.18731900  0.88399600  0.30019800  1
  C  52  1  0.18152900  0.92178000  0.29566900  1
  C  57  1  0.14323100  0.92964300  0.29756700  1
  C  58  1  0.12930900  0.92018100  0.31483100  1
  C  61  1  0.13712300  0.88233300  0.31882500  1
  C  64  1  0.15012800  0.94144400  0.32738000  1
  C  67  1  0.31019700  0.06441600  0.82673600  1
  C  68  1  0.29867700  0.05638000  0.80886400  1
  C  69  1  0.30465600  0.10286400  0.83018100  1
  C  70  1  0.32395300  0.12571200  0.81780900  1
  C  73  1  0.31202400  0.11524700  0.80019700  1
  C  74  1  0.31782800  0.07746900  0.79566000  1
  C  79  1  0.35613000  0.06961800  0.79755500  1
  C  80  1  0.37005300  0.07907900  0.81481900  1
  C  83  1  0.36222500  0.11692200  0.81881900  1
  C  86  1  0.34924900  0.05779800  0.82736800  1
  C  89  1  0.32545100  0.06812200  0.40927000  1
  C  90  1  0.31870200  0.04388800  0.42404400  1
  C  91  1  0.36439200  0.07347700  0.40699200  1
  C  92  1  0.38182700  0.08770000  0.42280200  1
  C  95  1  0.37335000  0.06180100  0.43656200  1
  C  96  1  0.33494200  0.05677700  0.44017700  1
  C  101  1  0.32034300  0.09261300  0.44415600  1
  C  102  1  0.32625500  0.11884700  0.43013400  1
  C  105  1  0.36483300  0.12215800  0.42694700  1
  C  108  1  0.31083400  0.10322300  0.41426900  1
  C  111  1  0.17387800  0.93111100  0.90926500  1
  C  112  1  0.18061900  0.95537200  0.92403100  1
  C  113  1  0.13493400  0.92579500  0.90696700  1
  C  114  1  0.11744800  0.91163700  0.92277700  1
  C  117  1  0.12592600  0.93755900  0.93652800  1
  C  118  1  0.16432900  0.94253900  0.94016000  1
  C  123  1  0.17886400  0.90669200  0.94417000  1
  C  124  1  0.17297000  0.88044100  0.93015700  1
  C  127  1  0.13439900  0.87716700  0.92693900  1
  C  130  1  0.18846100  0.89600800  0.91429400  1
  C  133  1  0.32184800  0.91873600  0.15976900  1
  C  134  1  0.29731400  0.92465800  0.17452400  1
  C  135  1  0.32665300  0.87984800  0.15687200  1
  C  136  1  0.34022300  0.86117500  0.17246800  1
  C  139  1  0.31418300  0.86903100  0.18628700  1
  C  140  1  0.30964100  0.90722800  0.19049300  1
  C  145  1  0.34561900  0.92091000  0.19492400  1
  C  146  1  0.37190400  0.91595000  0.18086900  1
  C  149  1  0.37480500  0.87763800  0.17679800  1
  C  152  1  0.35687100  0.93287200  0.16527200  1
  C  155  1  0.17750400  0.08055700  0.65976000  1
  C  156  1  0.20203300  0.07462600  0.67451600  1
  C  157  1  0.17272500  0.11944800  0.65685800  1
  C  158  1  0.15916800  0.13813800  0.67245300  1
  C  161  1  0.18520000  0.13026500  0.68627300  1
  C  162  1  0.18971400  0.09206800  0.69048200  1
  C  167  1  0.15372700  0.07841500  0.69491400  1
  C  168  1  0.12744800  0.08338500  0.68085500  1
  C  171  1  0.12457500  0.12169800  0.67678000  1
  C  174  1  0.14247300  0.06644300  0.66526200  1
  C  177  1  0.80177300  0.93015900  0.92246200  1
  C  178  1  0.79758200  0.94600300  0.93985000  1
  C  179  1  0.84035600  0.92871600  0.91831600  1
  C  180  1  0.86115700  0.90828500  0.93123300  1
  C  183  1  0.85495700  0.92553700  0.94819300  1
  C  184  1  0.81699100  0.92646400  0.95350000  1
  C  189  1  0.80286300  0.88979500  0.95348700  1
  C  190  1  0.80770200  0.87126300  0.93674700  1
  C  193  1  0.84548100  0.87211700  0.93144600  1
  C  196  1  0.78869100  0.89278400  0.92368600  1
  C  199  1  0.69749000  0.06920700  0.42244800  1
  C  200  1  0.70169600  0.05335400  0.43983400  1
  C  201  1  0.65890200  0.07066300  0.41831400  1
  C  202  1  0.63812300  0.09109900  0.43124000  1
  C  205  1  0.64433600  0.07383800  0.44819500  1
  C  206  1  0.68231000  0.07289800  0.45349200  1
  C  211  1  0.69645300  0.10956100  0.45347600  1
  C  212  1  0.69159600  0.12810100  0.43674000  1
  C  215  1  0.65381000  0.12726300  0.43145200  1
  C  218  1  0.71058200  0.10657800  0.42367100  1
  C  221  1  0.82082600  0.05998600  0.67356300  1
  C  222  1  0.80289000  0.05453200  0.69036800  1
  C  223  1  0.82169300  0.09874700  0.67029900  1
  C  224  1  0.83993700  0.11945600  0.68407100  1
  C  227  1  0.82130200  0.11181200  0.70054200  1
  C  228  1  0.82031300  0.07333900  0.70486700  1
  C  233  1  0.85715900  0.05940500  0.70521800  1
  C  234  1  0.87804600  0.06670700  0.68934600  1
  C  237  1  0.87665400  0.10516500  0.68547000  1
  C  240  1  0.85846000  0.04840500  0.67534600  1
  C  243  1  0.67851700  0.93939000  0.17357600  1
  C  244  1  0.69646100  0.94477800  0.19038200  1
  C  245  1  0.67760500  0.90063900  0.17028400  1
  C  246  1  0.65934600  0.87990800  0.18404300  1
  C  249  1  0.67800600  0.88747800  0.20051700  1
  C  250  1  0.67903600  0.92593800  0.20486900  1
  C  255  1  0.64219100  0.93987600  0.20523800  1
  C  256  1  0.62129200  0.93267900  0.18935900  1
  C  259  1  0.62264200  0.89423200  0.18545400  1
  C  262  1  0.64090100  0.95100800  0.17537500  1
  C  265  1  0.67983500  0.93163700  0.58980200  1
  C  266  1  0.68532800  0.95418500  0.57425800  1
  C  267  1  0.64105400  0.92813700  0.59346200  1
  C  268  1  0.62102100  0.91308700  0.57859900  1
  C  271  1  0.62854100  0.93726300  0.56396800  1
  C  272  1  0.66639300  0.94056200  0.55898300  1
  C  277  1  0.67902300  0.90389100  0.55537300  1
  C  278  1  0.67436100  0.87928600  0.57019500  1
  C  281  1  0.63634000  0.87766600  0.57504900  1
  C  284  1  0.69281300  0.89557200  0.58511400  1
  C  287  1  0.81952100  0.06771700  0.08981500  1
  C  288  1  0.81402000  0.04517400  0.07426900  1
  C  289  1  0.85830400  0.07120400  0.09347300  1
  C  290  1  0.87833500  0.08625500  0.07861000  1
  C  293  1  0.87080900  0.06208400  0.06397800  1
  C  294  1  0.83295600  0.05879500  0.05899400  1
  C  299  1  0.82033300  0.09546900  0.05538500  1
  C  300  1  0.82500200  0.12006900  0.07020900  1
  C  303  1  0.86302400  0.12167800  0.07506500  1
  C  306  1  0.80654700  0.10378600  0.08512800  1
  C  309  1  0.67411300  0.07336900  0.84107100  1
  C  310  1  0.69702900  0.06202500  0.82649800  1
  C  311  1  0.67238500  0.11281800  0.84142100  1
  C  312  1  0.65867200  0.12847700  0.82502300  1
  C  315  1  0.68250500  0.11556100  0.81114500  1
  C  316  1  0.68483500  0.07620500  0.80981800  1
  C  321  1  0.64796000  0.06312200  0.80711200  1
  C  322  1  0.62268200  0.07455000  0.82074800  1
  C  325  1  0.62282500  0.11376700  0.82191200  1
  C  328  1  0.63747700  0.06107400  0.83719100  1
  C  331  1  0.82523800  0.92598300  0.34108900  1
  C  332  1  0.80231400  0.93727600  0.32650900  1
  C  333  1  0.82701100  0.88653400  0.34145300  1
  C  334  1  0.84075600  0.87086700  0.32506300  1
  C  337  1  0.81691300  0.88373500  0.31117900  1
  C  338  1  0.81453600  0.92308500  0.30983500  1
  C  343  1  0.85139500  0.93620900  0.30713000  1
  C  344  1  0.87668100  0.92482800  0.32077200  1
  C  347  1  0.87658600  0.88561400  0.32195100  1
  C  350  1  0.86186400  0.93831300  0.33720900  1
  C  353  1  0.69214900  0.57072000  0.57647400  1
  C  354  1  0.69806600  0.55338700  0.55955200  1
  C  355  1  0.65334100  0.57164200  0.57950100  1
  C  356  1  0.63317300  0.59052500  0.56575900  1
  C  359  1  0.64116900  0.57242300  0.54920200  1
  C  360  1  0.67974700  0.57151400  0.54509100  1
  C  365  1  0.69390000  0.60828000  0.54513500  1
  C  366  1  0.68618700  0.62858600  0.56114100  1
  C  369  1  0.64763000  0.62722600  0.56474600  1
  C  372  1  0.70391800  0.60839100  0.57509200  1
  C  375  1  0.80723100  0.42862600  0.07651300  1
  C  376  1  0.80124700  0.44596100  0.05959500  1
  C  377  1  0.84604700  0.42773200  0.07950800  1
  C  378  1  0.86618300  0.40886100  0.06575000  1
  C  381  1  0.85811600  0.42695300  0.04919800  1
  C  382  1  0.81952100  0.42784200  0.04511800  1
  C  387  1  0.80536800  0.39107500  0.04517600  1
  C  388  1  0.81317600  0.37076900  0.06117200  1
  C  391  1  0.85174600  0.37215500  0.06474400  1
  C  394  1  0.79548500  0.39094500  0.07514100  1
  C  397  1  0.67661800  0.44438000  0.82514200  1
  C  398  1  0.69228200  0.44963100  0.80782000  1
  C  399  1  0.67495500  0.40568200  0.82878300  1
  C  400  1  0.65441800  0.38555200  0.81561700  1
  C  403  1  0.67190100  0.39262900  0.79882600  1
  C  404  1  0.67269000  0.43089100  0.79395700  1
  C  409  1  0.63596900  0.44493400  0.79412300  1
  C  410  1  0.61746400  0.43923500  0.81084700  1
  C  413  1  0.61807000  0.40101500  0.81524100  1
  C  416  1  0.63928800  0.45716400  0.82415600  1
  C  419  1  0.82273000  0.55499800  0.32514700  1
  C  420  1  0.80703300  0.54980300  0.30782800  1
  C  421  1  0.82445100  0.59368600  0.32880400  1
  C  422  1  0.84500000  0.61381200  0.31564000  1
  C  425  1  0.82748500  0.60679200  0.29885100  1
  C  426  1  0.82662800  0.56854000  0.29396600  1
  C  431  1  0.86332900  0.55444700  0.29410900  1
  C  432  1  0.88186700  0.56008100  0.31083100  1
  C  435  1  0.88132600  0.59829000  0.31524300  1
  C  438  1  0.86003500  0.54216200  0.32414200  1
  C  441  1  0.81576900  0.57161900  0.90810800  1
  C  442  1  0.80541000  0.54758300  0.92245000  1
  C  443  1  0.85503800  0.57534400  0.90793800  1
  C  444  1  0.86981200  0.58932500  0.92449200  1
  C  447  1  0.85789600  0.56434200  0.93811800  1
  C  448  1  0.81865900  0.55995300  0.93926800  1
  C  453  1  0.80370200  0.59598600  0.94211800  1
  C  454  1  0.81406800  0.62243900  0.92882700  1
  C  457  1  0.85327200  0.62432800  0.92794400  1
  C  460  1  0.80172500  0.60752900  0.91221000  1
  C  463  1  0.68347400  0.42773900  0.40806000  1
  C  464  1  0.69378500  0.45177500  0.42241000  1
  C  465  1  0.64420800  0.42398700  0.40786900  1
  C  466  1  0.62941300  0.40998100  0.42441300  1
  C  469  1  0.64128200  0.43496600  0.43804800  1
  C  470  1  0.68051100  0.43938300  0.43921900  1
  C  475  1  0.69548900  0.40336300  0.44207000  1
  C  476  1  0.68516800  0.37690400  0.42877200  1
  C  479  1  0.64597100  0.37498800  0.42786900  1
  C  482  1  0.69753300  0.39183400  0.41216400  1
  C  485  1  0.82073400  0.43065800  0.66024400  1
  C  486  1  0.79778000  0.43400900  0.67576500  1
  C  487  1  0.82753700  0.39249800  0.65657300  1
  C  488  1  0.84368000  0.37363000  0.67153800  1
  C  491  1  0.81963900  0.37882600  0.68642000  1
  C  492  1  0.81302000  0.41658900  0.69118500  1
  C  497  1  0.84817600  0.43296000  0.69482100  1
  C  498  1  0.87314700  0.42995100  0.68011300  1
  C  501  1  0.87747800  0.39192000  0.67601400  1
  C  504  1  0.85552400  0.44612900  0.66498800  1
  C  507  1  0.67858000  0.56871800  0.16025200  1
  C  508  1  0.70151600  0.56539900  0.17578000  1
  C  509  1  0.67177600  0.60687000  0.15656300  1
  C  510  1  0.65561300  0.62576600  0.17151400  1
  C  513  1  0.67963400  0.62059800  0.18640600  1
  C  514  1  0.68625300  0.58284700  0.19118800  1
  C  519  1  0.65109400  0.56647900  0.19482100  1
  C  520  1  0.62614100  0.56945700  0.18010500  1
  C  523  1  0.62181300  0.60748100  0.17598900  1
  C  526  1  0.64378500  0.55325200  0.16499200  1
  C  529  1  0.31292800  0.42512400  0.42386100  1
  C  530  1  0.30796000  0.44228900  0.44086900  1
  C  531  1  0.35166300  0.42311000  0.42017000  1
  C  532  1  0.37210200  0.40390100  0.43372900  1
  C  535  1  0.36533400  0.42316500  0.45009200  1
  C  536  1  0.32719700  0.42411900  0.45506300  1
  C  541  1  0.31412000  0.38708000  0.45570900  1
  C  542  1  0.31841700  0.36732500  0.43922900  1
  C  545  1  0.35661300  0.36757600  0.43481100  1
  C  548  1  0.29973900  0.38811200  0.42582700  1
  C  551  1  0.18631400  0.57419900  0.92387100  1
  C  552  1  0.19131300  0.55698200  0.94086400  1
  C  553  1  0.14757500  0.57623100  0.92019600  1
  C  554  1  0.12716000  0.59540500  0.93377500  1
  C  557  1  0.13395400  0.57608300  0.95012100  1
  C  558  1  0.17209800  0.57510600  0.95507500  1
  C  563  1  0.18517000  0.61214600  0.95574300  1
  C  564  1  0.18085200  0.63196600  0.93928300  1
  C  567  1  0.14265300  0.63173300  0.93487300  1
  C  570  1  0.19950300  0.61120600  0.92585900  1
  C  573  1  0.32148000  0.54643300  0.17149800  1
  C  574  1  0.30447600  0.54411600  0.18869500  1
  C  575  1  0.32510500  0.58460300  0.16683400  1
  C  576  1  0.34558600  0.60546700  0.17975700  1
  C  579  1  0.32657800  0.60143900  0.19640600  1
  C  580  1  0.32386700  0.56394900  0.20230000  1
  C  585  1  0.36016800  0.54906600  0.20304700  1
  C  586  1  0.37970000  0.55060900  0.18641700  1
  C  589  1  0.38110800  0.58824000  0.18101800  1
  C  592  1  0.35789400  0.53159800  0.17356700  1
  C  595  1  0.17779200  0.45287500  0.67147500  1
  C  596  1  0.19479800  0.45520200  0.68867100  1
  C  597  1  0.17417200  0.41470500  0.66681400  1
  C  598  1  0.15369600  0.39384100  0.67973900  1
  C  601  1  0.17270800  0.39787900  0.69638800  1
  C  602  1  0.17541300  0.43537200  0.70227800  1
  C  607  1  0.13911200  0.45025000  0.70302500  1
  C  608  1  0.11957600  0.44869600  0.68639700  1
  C  611  1  0.11817100  0.41106100  0.68100200  1
  C  614  1  0.14137700  0.46770500  0.67354300  1
  C  617  1  0.17799200  0.42150200  0.08783700  1
  C  618  1  0.18137800  0.44493600  0.07245900  1
  C  619  1  0.13982900  0.41559700  0.09186200  1
  C  620  1  0.11993500  0.40047700  0.07699900  1
  C  623  1  0.12508900  0.42490600  0.06230300  1
  C  624  1  0.16274600  0.43082800  0.05713500  1
  C  629  1  0.17818700  0.39546900  0.05308900  1
  C  630  1  0.17503200  0.36985000  0.06759400  1
  C  633  1  0.13708200  0.36647600  0.07199700  1
  C  636  1  0.19238100  0.38636100  0.08273500  1
  C  639  1  0.32137000  0.57772900  0.58781500  1
  C  640  1  0.31802600  0.55428900  0.57243700  1
  C  641  1  0.35952400  0.58363100  0.59186000  1
  C  642  1  0.37944900  0.59875100  0.57700700  1
  C  645  1  0.37433400  0.57432200  0.56230500  1
  C  646  1  0.33668600  0.56839500  0.55712100  1
  C  651  1  0.32125000  0.60375100  0.55306300  1
  C  652  1  0.32437100  0.62937500  0.56756900  1
  C  655  1  0.36230700  0.63275000  0.57199600  1
  C  658  1  0.30698800  0.61286700  0.58270100  1
  C  661  1  0.18371700  0.56332200  0.33924800  1
  C  662  1  0.20633000  0.55906600  0.32365300  1
  C  663  1  0.17818200  0.60192800  0.34285700  1
  C  664  1  0.16205800  0.62134700  0.32800500  1
  C  667  1  0.18667000  0.61517900  0.31342000  1
  C  668  1  0.19161300  0.57751900  0.30845700  1
  C  673  1  0.15535400  0.56352500  0.30504600  1
  C  674  1  0.13065900  0.56645100  0.31999900  1
  C  677  1  0.12731300  0.60446300  0.32437000  1
  C  680  1  0.14835700  0.54848500  0.33463600  1
  C  683  1  0.31550300  0.43597600  0.83923700  1
  C  684  1  0.29291300  0.44023900  0.82363600  1
  C  685  1  0.32101200  0.39736600  0.84285200  1
  C  686  1  0.33714400  0.37793100  0.82800400  1
  C  689  1  0.31255700  0.38411600  0.81341200  1
  C  690  1  0.30764500  0.42178000  0.80844500  1
  C  695  1  0.34391500  0.43574800  0.80504500  1
  C  696  1  0.36858800  0.43280900  0.82000800  1
  C  699  1  0.37190700  0.39479800  0.82438100  1
  C  702  1  0.35087700  0.45079100  0.83463600  1
  C  705  1  0.18809900  0.33473900  0.06363700  1
  C  706  1  0.17791100  0.31816300  0.04923700  1
  C  707  1  0.18185500  0.28329100  0.04683200  1
  C  708  1  0.19477500  0.26318300  0.05969000  1
  C  709  1  0.21018200  0.27982400  0.07302500  1
  C  710  1  0.20644700  0.31480200  0.07483500  1
  C  712  1  0.19141200  0.22718900  0.06054000  1
  C  713  1  0.16403000  0.21047400  0.05332700  1
  C  714  1  0.15937000  0.17597600  0.05517200  1
  C  715  1  0.18037100  0.15598400  0.06515900  1
  C  716  1  0.20650300  0.17320200  0.07333400  1
  C  717  1  0.21202800  0.20804100  0.07118700  1
  C  722  1  0.23928400  0.22551500  0.08010000  1
  C  723  1  0.22736000  0.26035500  0.08609900  1
  C  731  1  0.31131000  0.66448400  0.56360400  1
  C  732  1  0.32159500  0.68107700  0.54922500  1
  C  733  1  0.31768800  0.71595500  0.54682500  1
  C  734  1  0.30471600  0.73605800  0.55967300  1
  C  735  1  0.28923300  0.71940400  0.57298500  1
  C  736  1  0.29289000  0.68441100  0.57478000  1
  C  738  1  0.30807800  0.77205300  0.56053400  1
  C  739  1  0.33546300  0.78878700  0.55333500  1
  C  740  1  0.34012000  0.82328400  0.55519700  1
  C  741  1  0.31908000  0.84326900  0.56516800  1
  C  742  1  0.29292300  0.82603700  0.57331800  1
  C  743  1  0.28741700  0.79119700  0.57116300  1
  C  748  1  0.26012400  0.77371600  0.58004700  1
  C  749  1  0.27202300  0.73887400  0.58604900  1
  C  757  1  0.91262600  0.93589100  0.31733800  1
  C  758  1  0.92795200  0.92815200  0.30225600  1
  C  759  1  0.96274700  0.93138600  0.29946400  1
  C  760  1  0.98405500  0.94128400  0.31248000  1
  C  761  1  0.96878700  0.95400200  0.32685200  1
  C  762  1  0.93386600  0.95073500  0.32914500  1
  C  764  1  0.02007400  0.93793500  0.31225600  1
  C  765  1  0.03607700  0.91196700  0.30354500  1
  C  766  1  0.07071900  0.90695200  0.30448700  1
  C  767  1  0.09158900  0.92629400  0.31481500  1
  C  768  1  0.07519100  0.95107400  0.32429300  1
  C  769  1  0.04022100  0.95681800  0.32320100  1
  C  774  1  0.02358200  0.98199300  0.33379700  1
  C  775  1  0.98970600  0.96830800  0.34020400  1
  C  783  1  0.58672700  0.06352600  0.81731400  1
  C  784  1  0.57140100  0.07126700  0.80223400  1
  C  785  1  0.53661600  0.06797100  0.79943300  1
  C  786  1  0.51531600  0.05803800  0.81244600  1
  C  787  1  0.53058600  0.04533100  0.82681800  1
  C  788  1  0.56550700  0.04862100  0.82911200  1
  C  790  1  0.47929600  0.06137600  0.81222800  1
  C  791  1  0.46328100  0.08736400  0.80353700  1
  C  792  1  0.42863400  0.09234300  0.80447100  1
  C  793  1  0.40777700  0.07298400  0.81479700  1
  C  794  1  0.42419000  0.04820100  0.82426800  1
  C  795  1  0.45916000  0.04247300  0.82317000  1
  C  800  1  0.47581400  0.01727800  0.83374900  1
  C  801  1  0.50968400  0.03096200  0.84016000  1
  C  809  1  0.30662500  0.33086200  0.43997500  1
  C  810  1  0.29944100  0.31366700  0.45469400  1
  C  811  1  0.29467400  0.27851900  0.45550200  1
  C  812  1  0.29562800  0.25926200  0.44098700  1
  C  813  1  0.29734700  0.27667200  0.42591100  1
  C  814  1  0.30483400  0.31115900  0.42565600  1
  C  816  1  0.29619900  0.22311600  0.44044300  1
  C  817  1  0.31517700  0.20405200  0.45164200  1
  C  818  1  0.32282800  0.17020300  0.44869700  1
  C  819  1  0.31212600  0.15334300  0.43442600  1
  C  820  1  0.29157000  0.17222500  0.42370700  1
  C  821  1  0.28464600  0.20652100  0.42621500  1
  C  826  1  0.26993100  0.22703900  0.41289100  1
  C  827  1  0.29201300  0.25853600  0.41025200  1
  C  835  1  0.19263000  0.66843900  0.94007500  1
  C  836  1  0.19947300  0.68564600  0.95483100  1
  C  837  1  0.20415700  0.72080200  0.95566800  1
  C  838  1  0.20354300  0.74006300  0.94114700  1
  C  839  1  0.20219900  0.72264300  0.92606400  1
  C  840  1  0.19472500  0.68815100  0.92576900  1
  C  842  1  0.20295200  0.77621400  0.94060000  1
  C  843  1  0.18381600  0.79528000  0.95173700  1
  C  844  1  0.17618600  0.82911800  0.94875100  1
  C  845  1  0.18705500  0.84595900  0.93450300  1
  C  846  1  0.20782400  0.82709900  0.92387400  1
  C  847  1  0.21477000  0.79282200  0.92642500  1
  C  852  1  0.22983800  0.77232300  0.91318900  1
  C  853  1  0.20789600  0.74077500  0.91043500  1
  C  861  1  0.58430200  0.94241400  0.19124500  1
  C  862  1  0.56609300  0.93470800  0.20561100  1
  C  863  1  0.53116000  0.93900700  0.20728500  1
  C  864  1  0.51186900  0.94838800  0.19350500  1
  C  865  1  0.52952700  0.95904200  0.17933600  1
  C  866  1  0.56476800  0.95558800  0.17835100  1
  C  868  1  0.47573100  0.94554700  0.19270000  1
  C  869  1  0.45763200  0.92155900  0.20185900  1
  C  870  1  0.42372100  0.91480600  0.19888800  1
  C  871  1  0.40627400  0.92951500  0.18570800  1
  C  872  1  0.42401200  0.95451300  0.17691500  1
  C  873  1  0.45787700  0.96251900  0.18021100  1
  C  878  1  0.47635700  0.98664800  0.16975000  1
  C  879  1  0.51089200  0.97202100  0.16492300  1
  C  887  1  0.91504900  0.05703600  0.69123600  1
  C  888  1  0.93325500  0.06487700  0.70558200  1
  C  889  1  0.96817600  0.06050700  0.70727700  1
  C  890  1  0.98746200  0.05099400  0.69351800  1
  C  891  1  0.96980100  0.04024300  0.67936500  1
  C  892  1  0.93455800  0.04367600  0.67837700  1
  C  894  1  0.02360000  0.05385700  0.69269900  1
  C  895  1  0.04169300  0.07792000  0.70181500  1
  C  896  1  0.07562100  0.08460500  0.69886400  1
  C  897  1  0.09306800  0.06985800  0.68569500  1
  C  898  1  0.07532100  0.04484000  0.67691900  1
  C  899  1  0.04145400  0.03684200  0.68022200  1
  C  904  1  0.02299200  0.01261100  0.66981100  1
  C  905  1  0.98842400  0.02714400  0.66497500  1
  C  913  1  0.80046000  0.65743200  0.93255100  1
  C  914  1  0.80412000  0.67153500  0.94826300  1
  C  915  1  0.79559800  0.70501300  0.95200700  1
  C  916  1  0.78546000  0.72695700  0.93929000  1
  C  917  1  0.77786500  0.71265800  0.92387300  1
  C  918  1  0.78564500  0.67872000  0.92073500  1
  C  920  1  0.78558300  0.76305200  0.94062200  1
  C  921  1  0.80859900  0.77956600  0.95089200  1
  C  922  1  0.81349100  0.81415800  0.95009100  1
  C  923  1  0.79707800  0.83468200  0.93846700  1
  C  924  1  0.77378900  0.81821800  0.92817300  1
  C  925  1  0.76828000  0.78312000  0.92902100  1
  C  930  1  0.74654200  0.76587000  0.91697100  1
  C  931  1  0.76399400  0.73381300  0.91048700  1
  C  939  1  0.69879800  0.34191900  0.43249900  1
  C  940  1  0.69517100  0.32783000  0.44821600  1
  C  941  1  0.70369300  0.29435300  0.45196200  1
  C  942  1  0.71380800  0.27239600  0.43924500  1
  C  943  1  0.72136100  0.28668500  0.42382000  1
  C  944  1  0.71359500  0.32062600  0.42068100  1
  C  946  1  0.71371800  0.23630300  0.44059300  1
  C  947  1  0.69078400  0.21979000  0.45090600  1
  C  948  1  0.68588400  0.18519400  0.45010600  1
  C  949  1  0.70224000  0.16467700  0.43846100  1
  C  950  1  0.72550400  0.18113400  0.42815100  1
  C  951  1  0.73100300  0.21623300  0.42898800  1
  C  956  1  0.75268600  0.23347800  0.41691300  1
  C  957  1  0.73518600  0.26551000  0.41042900  1
  C  965  1  0.69610500  0.66560100  0.55969500  1
  C  966  1  0.68847700  0.68436600  0.54550000  1
  C  967  1  0.69316900  0.71928700  0.54411300  1
  C  968  1  0.70272100  0.73798200  0.55806300  1
  C  969  1  0.71325900  0.71978500  0.57208000  1
  C  970  1  0.70957000  0.68451900  0.57274600  1
  C  972  1  0.70031800  0.77409200  0.55911400  1
  C  973  1  0.67636500  0.79250400  0.55011300  1
  C  974  1  0.67054600  0.82658300  0.55297300  1
  C  975  1  0.68636500  0.84409800  0.56583300  1
  C  976  1  0.71077400  0.82580600  0.57473800  1
  C  977  1  0.71769600  0.79159200  0.57159800  1
  C  982  1  0.74132900  0.77249900  0.58207200  1
  C  983  1  0.72628100  0.73794400  0.58663000  1
  C  991  1  0.80329300  0.33375000  0.05972000  1
  C  992  1  0.81102400  0.31498700  0.04553900  1
  C  993  1  0.80627900  0.28007900  0.04413400  1
  C  994  1  0.79664000  0.26138200  0.05806800  1
  C  995  1  0.78603900  0.27957300  0.07207600  1
  C  996  1  0.78971100  0.31484200  0.07274600  1
  C  998  1  0.79906500  0.22527200  0.05912700  1
  C  999  1  0.82308800  0.20687200  0.05016200  1
  C  1000  1  0.82885200  0.17278000  0.05299800  1
  C  1001  1  0.81301800  0.15526400  0.06585200  1
  C  1002  1  0.78858600  0.17355100  0.07474500  1
  C  1003  1  0.78166200  0.20776500  0.07160100  1
  C  1008  1  0.75795000  0.22683900  0.08203900  1
  C  1009  1  0.77292200  0.26141700  0.08660900  1
  C  1017  1  0.40378300  0.44668500  0.81706800  1
  C  1018  1  0.41603600  0.45581600  0.80149000  1
  C  1019  1  0.45023000  0.46315300  0.79850600  1
  C  1020  1  0.47346600  0.46248900  0.81160100  1
  C  1021  1  0.46079800  0.45871900  0.82764500  1
  C  1022  1  0.42722100  0.44901000  0.83000100  1
  C  1024  1  0.50936100  0.46330300  0.80969300  1
  C  1025  1  0.52513800  0.44519900  0.79708700  1
  C  1026  1  0.55969300  0.43882900  0.79736400  1
  C  1027  1  0.58096000  0.45073800  0.80994800  1
  C  1028  1  0.56489800  0.46918500  0.82249000  1
  C  1029  1  0.52984000  0.47438100  0.82278900  1
  C  1034  1  0.51305900  0.48689100  0.83776800  1
  C  1035  1  0.48316100  0.46359900  0.84201100  1
  C  1043  1  0.09547300  0.55256100  0.31704800  1
  C  1044  1  0.08326200  0.54338500  0.30147000  1
  C  1045  1  0.04906900  0.53605200  0.29847400  1
  C  1046  1  0.02581500  0.53670400  0.31156100  1
  C  1047  1  0.03846000  0.54046900  0.32761000  1
  C  1048  1  0.07203000  0.55019600  0.32997600  1
  C  1050  1  0.98992200  0.53587200  0.30964200  1
  C  1051  1  0.97415800  0.55393100  0.29701500  1
  C  1052  1  0.93961300  0.56037900  0.29731500  1
  C  1053  1  0.91835000  0.54852000  0.30991200  1
  C  1054  1  0.93438500  0.53000500  0.32243600  1
  C  1055  1  0.96943800  0.52478200  0.32273300  1
  C  1060  1  0.98620700  0.51226500  0.33771300  1
  C  1061  1  0.01608400  0.53557200  0.34196700  1
  C  1069  1  0.08362400  0.46177300  0.68745100  1
  C  1070  1  0.06691700  0.46832400  0.70237900  1
  C  1071  1  0.03167500  0.47147700  0.70356000  1
  C  1072  1  0.01198000  0.46973100  0.68922600  1
  C  1073  1  0.02875600  0.47012200  0.67396200  1
  C  1074  1  0.06354200  0.46426800  0.67328600  1
  C  1076  1  0.97606100  0.46623200  0.68908900  1
  C  1077  1  0.95934000  0.44489100  0.70018100  1
  C  1078  1  0.92602800  0.43474800  0.69757000  1
  C  1079  1  0.90730500  0.44549800  0.68387600  1
  C  1080  1  0.92400700  0.46799500  0.67319400  1
  C  1081  1  0.95783200  0.47726700  0.67526600  1
  C  1086  1  0.97641000  0.49415600  0.66186500  1
  C  1087  1  0.00951200  0.47493400  0.65858600  1
  C  1095  1  0.41565200  0.53753500  0.18747300  1
  C  1096  1  0.43238600  0.53105200  0.20239900  1
  C  1097  1  0.46762700  0.52788100  0.20357200  1
  C  1098  1  0.48730400  0.52961700  0.18923000  1
  C  1099  1  0.47051300  0.52920600  0.17397000  1
  C  1100  1  0.43572000  0.53503300  0.17330300  1
  C  1102  1  0.52321900  0.53317200  0.18908200  1
  C  1103  1  0.53991800  0.55458000  0.20015200  1
  C  1104  1  0.57324200  0.56468800  0.19755800  1
  C  1105  1  0.59197500  0.55393100  0.18386900  1
  C  1106  1  0.57526900  0.53144100  0.17318500  1
  C  1107  1  0.54144100  0.52216200  0.17525000  1
  C  1112  1  0.52287600  0.50521000  0.16186600  1
  C  1113  1  0.48973900  0.52437400  0.15859000  1
  C  1121  1  0.91642600  0.08861100  0.08010500  1
  C  1122  1  0.93517400  0.09983500  0.06646200  1
  C  1123  1  0.96991400  0.09502100  0.06492700  1
  C  1124  1  0.98743200  0.07956200  0.07788400  1
  C  1125  1  0.97099600  0.07576900  0.09308800  1
  C  1126  1  0.93554000  0.07845200  0.09380900  1
  C  1128  1  0.02211700  0.07124700  0.07658600  1
  C  1129  1  0.03540400  0.05696100  0.06231600  1
  C  1130  1  0.07002700  0.05362400  0.06032700  1
  C  1131  1  0.09298200  0.06504100  0.07230800  1
  C  1132  1  0.07871900  0.07376400  0.08763900  1
  C  1133  1  0.04356900  0.07506400  0.09015300  1
  C  1138  1  0.02814300  0.08238400  0.10629900  1
  C  1139  1  0.99176100  0.06797400  0.10771800  1
  C  1147  1  0.58293200  0.91072500  0.58009900  1
  C  1148  1  0.56418200  0.89948000  0.56646100  1
  C  1149  1  0.52944400  0.90433400  0.56492500  1
  C  1150  1  0.51193100  0.91979100  0.57788600  1
  C  1151  1  0.52837200  0.92355800  0.59309000  1
  C  1152  1  0.56382600  0.92086800  0.59380700  1
  C  1154  1  0.47724900  0.92812500  0.57659300  1
  C  1155  1  0.46396000  0.94244400  0.56233100  1
  C  1156  1  0.42933200  0.94578300  0.56034300  1
  C  1157  1  0.40638400  0.93431500  0.57231800  1
  C  1158  1  0.42065200  0.92558500  0.58764700  1
  C  1159  1  0.45580300  0.92430000  0.59016100  1
  C  1164  1  0.47122900  0.91696500  0.60630500  1
  C  1165  1  0.50761800  0.93136100  0.60772200  1
  C  1173  1  0.15786400  0.65924600  0.32956100  1
  C  1174  1  0.14519800  0.67744200  0.31604400  1
  C  1175  1  0.14863500  0.71235300  0.31443500  1
  C  1176  1  0.16406900  0.73051200  0.32719300  1
  C  1177  1  0.16928800  0.71431400  0.34235600  1
  C  1178  1  0.16794900  0.67879300  0.34313200  1
  C  1180  1  0.17189600  0.76530200  0.32567400  1
  C  1181  1  0.18560800  0.77841800  0.31123100  1
  C  1182  1  0.18982800  0.81295800  0.30926500  1
  C  1183  1  0.17977800  0.83616500  0.32142300  1
  C  1184  1  0.17116400  0.82198400  0.33678400  1
  C  1185  1  0.16917000  0.78685300  0.33927200  1
  C  1190  1  0.16261400  0.77152700  0.35551100  1
  C  1191  1  0.17750000  0.73533400  0.35684800  1
  C  1199  1  0.34130500  0.34002300  0.82955000  1
  C  1200  1  0.35396100  0.32182800  0.81603100  1
  C  1201  1  0.35060900  0.28691100  0.81443500  1
  C  1202  1  0.33517300  0.26874900  0.82719100  1
  C  1203  1  0.32993500  0.28494900  0.84235300  1
  C  1204  1  0.33125500  0.32047300  0.84312600  1
  C  1206  1  0.32738200  0.23394900  0.82567400  1
  C  1207  1  0.31369700  0.22081900  0.81122800  1
  C  1208  1  0.30947300  0.18627700  0.80926700  1
  C  1209  1  0.31956100  0.16307900  0.82142100  1
  C  1210  1  0.32816100  0.17726400  0.83678400  1
  C  1211  1  0.33012000  0.21239900  0.83927200  1
  C  1216  1  0.33665800  0.22773800  0.85551100  1
  C  1217  1  0.32174600  0.26392200  0.85684600  1
  C  1225  1  0.60033900  0.09345600  0.42822100  1
  C  1226  1  0.58050200  0.11416600  0.43839500  1
  C  1227  1  0.54582500  0.11901700  0.43629600  1
  C  1228  1  0.52828400  0.09918600  0.42472700  1
  C  1229  1  0.54746800  0.07921500  0.41379100  1
  C  1230  1  0.58273900  0.07664500  0.41564800  1
  C  1232  1  0.49217400  0.09838700  0.42361100  1
  C  1233  1  0.47173500  0.10423000  0.43732000  1
  C  1234  1  0.43688000  0.10261200  0.43638700  1
  C  1235  1  0.41982100  0.09215800  0.42213300  1
  C  1236  1  0.44044500  0.08448600  0.40854700  1
  C  1237  1  0.47595100  0.08722400  0.40918200  1
  C  1242  1  0.49720400  0.07770400  0.39503800  1
  C  1243  1  0.53008500  0.06023800  0.40060600  1
  C  1251  1  0.89893600  0.90593800  0.92820200  1
  C  1252  1  0.91878600  0.88522600  0.93836800  1
  C  1253  1  0.95345800  0.88037400  0.93626000  1
  C  1254  1  0.97098900  0.90021900  0.92469200  1
  C  1255  1  0.95179300  0.92019100  0.91376000  1
  C  1256  1  0.91652100  0.92274700  0.91562300  1
  C  1258  1  0.00709300  0.90102500  0.92357300  1
  C  1259  1  0.02752300  0.89515300  0.93728200  1
  C  1260  1  0.06237700  0.89676400  0.93635300  1
  C  1261  1  0.07945000  0.90721300  0.92210100  1
  C  1262  1  0.05883300  0.91490300  0.90851600  1
  C  1263  1  0.02332100  0.91219300  0.90914800  1
  C  1268  1  0.00207000  0.92174000  0.89501000  1
  C  1269  1  0.96917300  0.93918200  0.90058000  1
  C  1277  1  0.34941900  0.64288800  0.17611500  1
  C  1278  1  0.37101500  0.66261700  0.18588700  1
  C  1279  1  0.37554900  0.69736000  0.18378900  1
  C  1280  1  0.35492500  0.71487800  0.17254500  1
  C  1281  1  0.33481500  0.69571400  0.16168600  1
  C  1282  1  0.33222900  0.66047100  0.16363800  1
  C  1284  1  0.35303400  0.75097000  0.17184600  1
  C  1285  1  0.35817400  0.77068500  0.18585500  1
  C  1286  1  0.35524600  0.80548500  0.18544200  1
  C  1287  1  0.34464700  0.82318100  0.17138100  1
  C  1288  1  0.33731200  0.80314300  0.15754800  1
  C  1289  1  0.34095400  0.76766400  0.15772200  1
  C  1294  1  0.33158100  0.74681700  0.14341800  1
  C  1295  1  0.31524500  0.71312900  0.14871000  1
  C  1303  1  0.14987800  0.35642100  0.67609700  1
  C  1304  1  0.12829100  0.33668100  0.68586900  1
  C  1305  1  0.12376800  0.30193800  0.68376700  1
  C  1306  1  0.14440000  0.28442800  0.67252200  1
  C  1307  1  0.16448800  0.30360400  0.66165900  1
  C  1308  1  0.16705400  0.33884800  0.66361000  1
  C  1310  1  0.14632800  0.24834000  0.67182800  1
  C  1311  1  0.14126200  0.22863200  0.68584700  1
  C  1312  1  0.14416800  0.19383000  0.68543100  1
  C  1313  1  0.15477300  0.17613500  0.67137100  1
  C  1314  1  0.16206600  0.19617000  0.65753100  1
  C  1315  1  0.15840000  0.23164700  0.65770300  1
  C  1320  1  0.16772100  0.25249600  0.64339200  1
  C  1321  1  0.18403800  0.28620200  0.64867000  1
  C  1329  1  0.84768800  0.33585700  0.66882600  1
  C  1330  1  0.87786600  0.31823900  0.67208000  1
  C  1331  1  0.87938400  0.28295300  0.67358400  1
  C  1332  1  0.84985200  0.26371100  0.67129000  1
  C  1333  1  0.82102200  0.28016200  0.66501800  1
  C  1334  1  0.81985900  0.31554600  0.66454900  1
  C  1336  1  0.84799600  0.22818500  0.67424000  1
  C  1337  1  0.86371800  0.21304000  0.68776500  1
  C  1338  1  0.85984500  0.17872200  0.69104800  1
  C  1339  1  0.84091400  0.15721900  0.68082100  1
  C  1340  1  0.82296800  0.17340200  0.66809100  1
  C  1341  1  0.82527000  0.20826300  0.66514200  1
  C  1346  1  0.80303500  0.22509700  0.65309100  1
  C  1347  1  0.79167500  0.25990400  0.65956600  1
  C  1355  1  0.65160500  0.66353400  0.16878800  1
  C  1356  1  0.62139200  0.68114000  0.17198300  1
  C  1357  1  0.61986400  0.71642300  0.17348300  1
  C  1358  1  0.64939600  0.73567200  0.17120700  1
  C  1359  1  0.67825100  0.71922700  0.16495800  1
  C  1360  1  0.67942900  0.68384300  0.16449700  1
  C  1362  1  0.65123700  0.77119900  0.17415900  1
  C  1363  1  0.63545300  0.78633900  0.18766900  1
  C  1364  1  0.63936800  0.82064300  0.19097800  1
  C  1365  1  0.65833600  0.84215200  0.18077000  1
  C  1366  1  0.67629500  0.82598200  0.16804000  1
  C  1367  1  0.67399000  0.79112600  0.16508100  1
  C  1372  1  0.69626300  0.77429500  0.15304600  1
  C  1373  1  0.70761100  0.73949000  0.15952900  1
  C  1381  1  0.65256000  0.34765000  0.81830700  1
  C  1382  1  0.63263000  0.32760800  0.80787100  1
  C  1383  1  0.62958100  0.29251900  0.80938000  1
  C  1384  1  0.64961100  0.27519200  0.82096500  1
  C  1385  1  0.66842400  0.29472100  0.83224400  1
  C  1386  1  0.66973200  0.33007200  0.83076100  1
  C  1388  1  0.65103700  0.23906500  0.82218900  1
  C  1389  1  0.64618700  0.21799900  0.80859100  1
  C  1390  1  0.64771700  0.18309700  0.80992400  1
  C  1391  1  0.65672300  0.16670900  0.82459100  1
  C  1392  1  0.66380500  0.18802900  0.83799300  1
  C  1393  1  0.66127500  0.22343800  0.83693200  1
  C  1398  1  0.66970700  0.24503700  0.85111100  1
  C  1399  1  0.68740700  0.27769400  0.84552400  1
  C  1407  1  0.84691100  0.65170300  0.31834800  1
  C  1408  1  0.86687100  0.67174100  0.30792300  1
  C  1409  1  0.86995300  0.70682400  0.30944600  1
  C  1410  1  0.84991500  0.72415600  0.32102600  1
  C  1411  1  0.83109200  0.70463000  0.33230100  1
  C  1412  1  0.82975700  0.66928100  0.33080800  1
  C  1414  1  0.84848700  0.76028400  0.32225000  1
  C  1415  1  0.85331400  0.78134400  0.30864800  1
  C  1416  1  0.85178400  0.81624400  0.30997800  1
  C  1417  1  0.84274300  0.83263700  0.32464000  1
  C  1418  1  0.83567400  0.81132200  0.33804500  1
  C  1419  1  0.83822900  0.77591300  0.33698800  1
  C  1424  1  0.82980900  0.75431500  0.35117000  1
  C  1425  1  0.81211600  0.72165400  0.34558400  1
  C  1433  1  0.41711300  0.60203300  0.58013500  1
  C  1434  1  0.43542000  0.63187100  0.57705500  1
  C  1435  1  0.47073600  0.63262500  0.57577100  1
  C  1436  1  0.48919100  0.60262700  0.57812300  1
  C  1437  1  0.47203600  0.57419200  0.58436700  1
  C  1438  1  0.43664200  0.57381100  0.58464400  1
  C  1440  1  0.52460900  0.59992600  0.57519600  1
  C  1441  1  0.54006800  0.61531500  0.56166800  1
  C  1442  1  0.57432700  0.61090100  0.55847400  1
  C  1443  1  0.59537900  0.59166700  0.56878300  1
  C  1444  1  0.57879900  0.57386600  0.58143700  1
  C  1445  1  0.54397100  0.57675900  0.58430600  1
  C  1450  1  0.52662300  0.55487500  0.59633600  1
  C  1451  1  0.49153300  0.54438400  0.58987400  1
  C  1459  1  0.08225600  0.39722800  0.08009400  1
  C  1460  1  0.06393500  0.36741000  0.07699000  1
  C  1461  1  0.02862100  0.36669400  0.07568800  1
  C  1462  1  0.01018400  0.39669900  0.07805600  1
  C  1463  1  0.02735500  0.42509600  0.08432700  1
  C  1464  1  0.06274600  0.42544200  0.08463500  1
  C  1466  1  0.97476100  0.39943000  0.07513300  1
  C  1467  1  0.95927500  0.38405900  0.06160800  1
  C  1468  1  0.92502100  0.38852500  0.05841700  1
  C  1469  1  0.90398600  0.40772900  0.06874700  1
  C  1470  1  0.92059200  0.42549500  0.08140500  1
  C  1471  1  0.95542000  0.42258100  0.08426200  1
  C  1476  1  0.97278500  0.44443000  0.09630000  1
  C  1477  1  0.00787600  0.45491400  0.08983800  1
  C  1485  1  0.08924700  0.59759400  0.93115300  1
  C  1486  1  0.06926200  0.61678800  0.94194000  1
  C  1487  1  0.03412200  0.61987900  0.94057800  1
  C  1488  1  0.01663000  0.60068300  0.92871400  1
  C  1489  1  0.03615700  0.58251100  0.91716400  1
  C  1490  1  0.07154900  0.58115300  0.91852400  1
  C  1492  1  0.98041000  0.59943500  0.92745800  1
  C  1493  1  0.95908700  0.60384900  0.94102100  1
  C  1494  1  0.92415700  0.60187800  0.93963700  1
  C  1495  1  0.90797700  0.59283700  0.92492500  1
  C  1496  1  0.92952500  0.58675200  0.91148700  1
  C  1497  1  0.96488400  0.58979300  0.91259200  1
  C  1502  1  0.98654300  0.58227100  0.89831200  1
  C  1503  1  0.01909800  0.56417400  0.90369000  1
  C  1511  1  0.41000900  0.40171400  0.43109000  1
  C  1512  1  0.42999900  0.38245800  0.44184900  1
  C  1513  1  0.46513000  0.37932900  0.44046100  1
  C  1514  1  0.48261000  0.39857600  0.42861200  1
  C  1515  1  0.46307800  0.41679500  0.41708300  1
  C  1516  1  0.42768900  0.41817500  0.41846100  1
  C  1518  1  0.51882500  0.39982800  0.42735400  1
  C  1519  1  0.54014100  0.39541400  0.44092100  1
  C  1520  1  0.57506900  0.39736600  0.43953800  1
  C  1521  1  0.59125100  0.40645400  0.42483400  1
  C  1522  1  0.56971000  0.41256900  0.41139600  1
  C  1523  1  0.53435200  0.40952000  0.41249700  1
  C  1528  1  0.51268800  0.41707300  0.39822100  1
  C  1529  1  0.48012500  0.43514700  0.40361000  1
  C  1537  1  0.18403300  0.05562400  0.02856000  1
  C  1538  1  0.16576700  0.07128200  0.01586100  1
  C  1539  1  0.16677500  0.06035000  0.99957100  1
  C  1540  1  0.18600200  0.03158400  0.99561400  1
  C  1541  1  0.20862300  0.01871900  0.00741800  1
  C  1542  1  0.20678300  0.03022400  0.02367000  1
  C  1544  1  0.18211500  0.01341300  0.98065200  1
  C  1545  1  0.15029200  0.01004300  0.97340600  1
  C  1546  1  0.14490600  0.98817300  0.96040800  1
  C  1547  1  0.17066600  0.96760700  0.95390400  1
  C  1548  1  0.20268900  0.97116900  0.96127800  1
  C  1549  1  0.20821400  0.99241200  0.97483800  1
  C  1554  1  0.24009600  0.99142200  0.98421200  1
  C  1555  1  0.23289200  0.99184100  0.00282000  1
  C  1563  1  0.31531800  0.94362600  0.52856700  1
  C  1564  1  0.33358700  0.92798000  0.51586500  1
  C  1565  1  0.33258800  0.93894200  0.49957800  1
  C  1566  1  0.31333400  0.96769500  0.49562600  1
  C  1567  1  0.29069100  0.98051800  0.50743000  1
  C  1568  1  0.29252900  0.96899500  0.52367900  1
  C  1570  1  0.31720400  0.98588100  0.48066600  1
  C  1571  1  0.34902100  0.98924600  0.47341200  1
  C  1572  1  0.35439600  0.01116600  0.46043200  1
  C  1573  1  0.32862200  0.03171200  0.45392500  1
  C  1574  1  0.29660000  0.02812000  0.46129600  1
  C  1575  1  0.29108900  0.00686600  0.47485400  1
  C  1580  1  0.25920700  0.00782500  0.48422900  1
  C  1581  1  0.26640900  0.00739000  0.50283700  1
  C  1589  1  0.19288600  0.92765600  0.27815200  1
  C  1590  1  0.17759100  0.90959000  0.26528100  1
  C  1591  1  0.18986100  0.90976500  0.24918900  1
  C  1592  1  0.21918000  0.92845300  0.24556300  1
  C  1593  1  0.23148300  0.95123100  0.25744100  1
  C  1594  1  0.21897800  0.94985900  0.27353000  1
  C  1596  1  0.23800100  0.92446800  0.23077600  1
  C  1597  1  0.24160500  0.89266600  0.22350800  1
  C  1598  1  0.26387400  0.88734800  0.21063200  1
  C  1599  1  0.28444600  0.91321200  0.20422700  1
  C  1600  1  0.28074100  0.94514700  0.21167300  1
  C  1601  1  0.25917500  0.95057500  0.22511800  1
  C  1606  1  0.25994600  0.98243200  0.23452000  1
  C  1607  1  0.25883400  0.97517700  0.25311400  1
  C  1615  1  0.30646200  0.07160200  0.77814300  1
  C  1616  1  0.32174600  0.08968100  0.76527400  1
  C  1617  1  0.30948600  0.08949000  0.74918100  1
  C  1618  1  0.28016900  0.07080000  0.74555700  1
  C  1619  1  0.26786500  0.04802500  0.75743400  1
  C  1620  1  0.28038000  0.04939100  0.77352200  1
  C  1622  1  0.26132900  0.07480400  0.73077600  1
  C  1623  1  0.25769200  0.10662000  0.72352400  1
  C  1624  1  0.23548100  0.11193400  0.71062500  1
  C  1625  1  0.21489900  0.08607700  0.70422100  1
  C  1626  1  0.21857800  0.05414700  0.71167300  1
  C  1627  1  0.24014000  0.04870500  0.72511800  1
  C  1632  1  0.23938700  0.01683600  0.73451100  1
  C  1633  1  0.24052300  0.02406800  0.75310600  1
  C  1641  1  0.81382500  0.94164700  0.97049200  1
  C  1642  1  0.83108400  0.92681500  0.98373500  1
  C  1643  1  0.83173800  0.94083800  0.99948900  1
  C  1644  1  0.81457100  0.97141200  0.00242000  1
  C  1645  1  0.79298000  0.98408000  0.99012800  1
  C  1646  1  0.79371900  0.96988400  0.97437200  1
  C  1648  1  0.81805300  0.99043500  0.01716700  1
  C  1649  1  0.84925800  0.99296000  0.02507800  1
  C  1650  1  0.85387000  0.01440900  0.03833300  1
  C  1651  1  0.82788000  0.03517100  0.04451300  1
  C  1652  1  0.79672300  0.03297600  0.03620700  1
  C  1653  1  0.79208100  0.01228000  0.02236800  1
  C  1658  1  0.76124900  0.01442300  0.01223500  1
  C  1659  1  0.77029400  0.01286900  0.99383200  1
  C  1667  1  0.68548900  0.05771200  0.47048200  1
  C  1668  1  0.66825600  0.07255700  0.48373000  1
  C  1669  1  0.66760500  0.05852800  0.49948200  1
  C  1670  1  0.68475700  0.02794500  0.50241000  1
  C  1671  1  0.70632300  0.01526400  0.49011100  1
  C  1672  1  0.70557900  0.02946100  0.47435600  1
  C  1674  1  0.68128800  0.00893200  0.51716200  1
  C  1675  1  0.65010000  0.00646100  0.52509500  1
  C  1676  1  0.64548300  0.98497700  0.53833500  1
  C  1677  1  0.67146800  0.96419500  0.54450600  1
  C  1678  1  0.70262100  0.96638400  0.53619600  1
  C  1679  1  0.70725500  0.98707600  0.52235400  1
  C  1684  1  0.73806700  0.98490700  0.51220900  1
  C  1685  1  0.72899100  0.98645700  0.49380900  1
  C  1693  1  0.80314300  0.06862100  0.72137100  1
  C  1694  1  0.81912800  0.07889000  0.73592200  1
  C  1695  1  0.80573800  0.07334900  0.75160500  1
  C  1696  1  0.77233100  0.06122700  0.75331000  1
  C  1697  1  0.75548200  0.05096500  0.73881600  1
  C  1698  1  0.77096100  0.05430700  0.72342800  1
  C  1700  1  0.75403400  0.05989600  0.76859000  1
  C  1701  1  0.76231800  0.07982000  0.78225400  1
  C  1702  1  0.74172200  0.08156500  0.79601300  1
  C  1703  1  0.70946700  0.06680600  0.79635400  1
  C  1704  1  0.70167900  0.04552900  0.78306300  1
  C  1705  1  0.72351000  0.04150100  0.76961800  1
  C  1710  1  0.71380300  0.01953300  0.75581500  1
  C  1711  1  0.72065200  0.03747400  0.73951000  1
  C  1719  1  0.69621500  0.93060500  0.22137300  1
  C  1720  1  0.68023800  0.92030200  0.23592000  1
  C  1721  1  0.69362700  0.92581800  0.25160600  1
  C  1722  1  0.72702200  0.93797000  0.25331700  1
  C  1723  1  0.74386100  0.94827300  0.23882700  1
  C  1724  1  0.72838200  0.94494900  0.22343700  1
  C  1726  1  0.74533200  0.93928200  0.26859500  1
  C  1727  1  0.73711000  0.91928700  0.28224400  1
  C  1728  1  0.75767100  0.91761900  0.29601800  1
  C  1729  1  0.78990400  0.93241900  0.29636100  1
  C  1730  1  0.79766500  0.95371600  0.28307400  1
  C  1731  1  0.77583100  0.95771700  0.26962700  1
  C  1736  1  0.78549000  0.97974100  0.25583900  1
  C  1737  1  0.77866600  0.96182800  0.23952400  1
  C  1745  1  0.68472700  0.55520400  0.52841600  1
  C  1746  1  0.67369000  0.57150900  0.51407500  1
  C  1747  1  0.67912800  0.55887300  0.49823400  1
  C  1748  1  0.69251500  0.52605700  0.49615400  1
  C  1749  1  0.70384100  0.50906300  0.51042600  1
  C  1750  1  0.70020600  0.52370000  0.52598900  1
  C  1752  1  0.69438400  0.50854000  0.48067400  1
  C  1753  1  0.67348400  0.51604500  0.46723800  1
  C  1754  1  0.67237200  0.49572600  0.45334400  1
  C  1755  1  0.68909100  0.46447800  0.45263300  1
  C  1756  1  0.71147600  0.45777200  0.46564400  1
  C  1757  1  0.71459700  0.47927800  0.47925000  1
  C  1762  1  0.73733000  0.47021200  0.49287100  1
  C  1763  1  0.71909100  0.47502700  0.50926900  1
  C  1771  1  0.81448300  0.44414700  0.02844600  1
  C  1772  1  0.82546800  0.42782900  0.01409900  1
  C  1773  1  0.81998500  0.44046200  0.99826200  1
  C  1774  1  0.80662300  0.47328900  0.99618900  1
  C  1775  1  0.79535000  0.49029800  0.01046700  1
  C  1776  1  0.79900200  0.47565300  0.02602900  1
  C  1778  1  0.80472100  0.49079900  0.98070800  1
  C  1779  1  0.82555800  0.48324100  0.96725700  1
  C  1780  1  0.82666800  0.50355400  0.95335900  1
  C  1781  1  0.81002200  0.53484800  0.95266900  1
  C  1782  1  0.78766700  0.54158400  0.96568900  1
  C  1783  1  0.78453800  0.52007800  0.97929400  1
  C  1788  1  0.76185200  0.52917600  0.99293000  1
  C  1789  1  0.78012900  0.52434600  0.00931700  1
  C  1797  1  0.68810400  0.43477800  0.77706100  1
  C  1798  1  0.67463400  0.41676700  0.76370200  1
  C  1799  1  0.69053400  0.41510400  0.74837900  1
  C  1800  1  0.72074000  0.43314500  0.74589500  1
  C  1801  1  0.73110800  0.45638900  0.75797500  1
  C  1802  1  0.71573900  0.45589600  0.77345100  1
  C  1804  1  0.74131100  0.42948800  0.73168600  1
  C  1805  1  0.74705800  0.39773100  0.72470700  1
  C  1806  1  0.77023900  0.39344800  0.71208700  1
  C  1807  1  0.78885900  0.42056500  0.70548900  1
  C  1808  1  0.78349300  0.45223600  0.71295700  1
  C  1809  1  0.76155400  0.45654500  0.72631500  1
  C  1814  1  0.76089800  0.48827100  0.73583900  1
  C  1815  1  0.75876600  0.48048300  0.75436100  1
  C  1823  1  0.81117700  0.56469500  0.27707500  1
  C  1824  1  0.82461100  0.58274200  0.26371900  1
  C  1825  1  0.80869900  0.58440200  0.24840000  1
  C  1826  1  0.77849100  0.56636400  0.24592000  1
  C  1827  1  0.76814300  0.54310700  0.25799900  1
  C  1828  1  0.78353900  0.54358000  0.27346800  1
  C  1830  1  0.75791200  0.57001300  0.23171300  1
  C  1831  1  0.75212500  0.60177000  0.22474300  1
  C  1832  1  0.72899100  0.60602800  0.21210100  1
  C  1833  1  0.71039100  0.57889600  0.20550300  1
  C  1834  1  0.71575500  0.54723500  0.21298100  1
  C  1835  1  0.73768400  0.54294400  0.22634500  1
  C  1840  1  0.73836500  0.51121200  0.23586400  1
  C  1841  1  0.74049400  0.51900100  0.25438600  1
  C  1849  1  0.32316400  0.44084800  0.47167500  1
  C  1850  1  0.34083200  0.42823800  0.48533200  1
  C  1851  1  0.34144500  0.44460300  0.50056100  1
  C  1852  1  0.32313400  0.47481200  0.50259200  1
  C  1853  1  0.30066600  0.48475200  0.49009100  1
  C  1854  1  0.30190800  0.46866200  0.47478500  1
  C  1856  1  0.32588900  0.49583400  0.51671700  1
  C  1857  1  0.35713200  0.50147500  0.52421500  1
  C  1858  1  0.36065700  0.52474000  0.53683900  1
  C  1859  1  0.33333333  0.54381800  0.54290600  1
  C  1860  1  0.30219100  0.53871300  0.53485400  1
  C  1861  1  0.29866900  0.51650100  0.52151400  1
  C  1866  1  0.26761400  0.51574400  0.51148600  1
  C  1867  1  0.27652700  0.51268800  0.49310700  1
  C  1875  1  0.17616000  0.55834000  0.97167700  1
  C  1876  1  0.15856400  0.57096800  0.98535200  1
  C  1877  1  0.15800300  0.55460700  0.00058100  1
  C  1878  1  0.17628000  0.52437400  0.00259200  1
  C  1879  1  0.19867000  0.51439100  0.99006600  1
  C  1880  1  0.19738500  0.53049100  0.97476200  1
  C  1882  1  0.17355200  0.50336200  0.01672100  1
  C  1883  1  0.14233500  0.49782300  0.02426100  1
  C  1884  1  0.13880700  0.47453900  0.03687400  1
  C  1885  1  0.16614500  0.45540500  0.04291900  1
  C  1886  1  0.19723900  0.46045500  0.03484300  1
  C  1887  1  0.20074800  0.48264200  0.02149100  1
  C  1892  1  0.23175200  0.48331600  0.01142400  1
  C  1893  1  0.22275900  0.48640200  0.99305500  1
  C  1901  1  0.30776800  0.56217800  0.21914900  1
  C  1902  1  0.32217700  0.57997600  0.23233400  1
  C  1903  1  0.30794500  0.58086000  0.24805400  1
  C  1904  1  0.27762700  0.56327700  0.25105800  1
  C  1905  1  0.26514400  0.54157100  0.23876400  1
  C  1906  1  0.27949100  0.54214500  0.22304100  1
  C  1908  1  0.25905200  0.56584000  0.26600200  1
  C  1909  1  0.25618600  0.59662500  0.27427600  1
  C  1910  1  0.23511200  0.60018700  0.28776200  1
  C  1911  1  0.21512000  0.57349800  0.29384400  1
  C  1912  1  0.21791700  0.54269300  0.28528000  1
  C  1913  1  0.23817600  0.53909400  0.27122200  1
  C  1918  1  0.23632400  0.50857700  0.26084700  1
  C  1919  1  0.23677100  0.51840400  0.24253100  1
  C  1927  1  0.19150800  0.43715600  0.71912700  1
  C  1928  1  0.17710900  0.41935000  0.73231200  1
  C  1929  1  0.19134500  0.41847100  0.74803200  1
  C  1930  1  0.22167100  0.43604600  0.75103200  1
  C  1931  1  0.23414400  0.45776000  0.73873700  1
  C  1932  1  0.21979100  0.45718600  0.72301500  1
  C  1934  1  0.24026000  0.43347100  0.76596900  1
  C  1935  1  0.24315500  0.40267100  0.77422900  1
  C  1936  1  0.26417200  0.39911700  0.78773400  1
  C  1937  1  0.28416200  0.42580000  0.79382300  1
  C  1938  1  0.28139400  0.45660200  0.78525100  1
  C  1939  1  0.26114600  0.46020700  0.77118900  1
  C  1944  1  0.26298200  0.49073600  0.76082400  1
  C  1945  1  0.26251400  0.48092900  0.74250500  1
  C  1953  1  0.30768000  0.93648700  0.14483300  1
  C  1954  1  0.32386000  0.96368400  0.13696100  1
  C  1955  1  0.30818100  0.98353100  0.12493200  1
  C  1956  1  0.27463100  0.97638000  0.12035500  1
  C  1957  1  0.25981600  0.94627600  0.12622800  1
  C  1958  1  0.27591600  0.92748400  0.13850700  1
  C  1960  1  0.25545700  0.99705600  0.10942300  1
  C  1961  1  0.25776400  0.03240700  0.10945900  1
  C  1962  1  0.23749300  0.05221100  0.09933700  1
  C  1963  1  0.21340700  0.03789600  0.08875000  1
  C  1964  1  0.21000200  0.00247900  0.08951800  1
  C  1965  1  0.22973900  0.98232400  0.09988100  1
  C  1970  1  0.22294700  0.94580300  0.10158100  1
  C  1971  1  0.22691400  0.93495600  0.11961100  1
  C  1979  1  0.19167300  0.06278500  0.64482800  1
  C  1980  1  0.17548800  0.03558200  0.63696300  1
  C  1981  1  0.19116500  0.01571900  0.62494000  1
  C  1982  1  0.22471400  0.02286300  0.62035700  1
  C  1983  1  0.23953100  0.05297200  0.62622500  1
  C  1984  1  0.22342500  0.07179100  0.63849200  1
  C  1986  1  0.24387800  0.00218500  0.60942200  1
  C  1987  1  0.24155400  0.96683300  0.60944600  1
  C  1988  1  0.26185300  0.94703000  0.59933600  1
  C  1989  1  0.28594100  0.96134700  0.58875200  1
  C  1990  1  0.28932800  0.99676600  0.58951300  1
  C  1991  1  0.26958800  0.01692000  0.59987500  1
  C  1996  1  0.27638200  0.05344200  0.60157300  1
  C  1997  1  0.27243600  0.06428000  0.61960500  1
  C  2005  1  0.30899800  0.05334100  0.39412500  1
  C  2006  1  0.28233600  0.06912400  0.38566400  1
  C  2007  1  0.26321000  0.05277200  0.37357900  1
  C  2008  1  0.27066500  0.01899000  0.36954200  1
  C  2009  1  0.30059100  0.00464600  0.37585600  1
  C  2010  1  0.31860900  0.02140100  0.38820900  1
  C  2012  1  0.25025300  0.99897800  0.35887300  1
  C  2013  1  0.21493200  0.00131800  0.35880700  1
  C  2014  1  0.19526000  0.98060800  0.34886800  1
  C  2015  1  0.20964000  0.95606100  0.33853700  1
  C  2016  1  0.24498400  0.95229900  0.33961000  1
  C  2017  1  0.26502100  0.97250200  0.34984700  1
  C  2022  1  0.30148700  0.96579600  0.35184000  1
  C  2023  1  0.31221700  0.97138200  0.36980200  1
  C  2031  1  0.19038100  0.94586800  0.89412700  1
  C  2032  1  0.21709100  0.93009400  0.88570000  1
  C  2033  1  0.23622600  0.94642900  0.87361100  1
  C  2034  1  0.22875700  0.98019700  0.86954700  1
  C  2035  1  0.19880400  0.99453100  0.87584000  1
  C  2036  1  0.18076400  0.97778700  0.88818800  1
  C  2038  1  0.24916100  0.00020200  0.85887000  1
  C  2039  1  0.28448600  0.99791000  0.85881400  1
  C  2040  1  0.30414500  0.01861100  0.84886300  1
  C  2041  1  0.28975100  0.04314500  0.83852900  1
  C  2042  1  0.25440500  0.04687400  0.83959700  1
  C  2043  1  0.23437800  0.02665300  0.84983000  1
  C  2048  1  0.19790000  0.03331400  0.85180200  1
  C  2049  1  0.18715500  0.02777100  0.86976400  1
  C  2057  1  0.68856200  0.05851000  0.85669200  1
  C  2058  1  0.67123200  0.03488700  0.86645200  1
  C  2059  1  0.68730200  0.01512800  0.87839900  1
  C  2060  1  0.72235000  0.01872400  0.88087600  1
  C  2061  1  0.73868600  0.04656700  0.87354100  1
  C  2062  1  0.72197700  0.06546200  0.86148000  1
  C  2064  1  0.74192000  0.99639000  0.89083400  1
  C  2065  1  0.73518100  0.96167700  0.89170500  1
  C  2066  1  0.75480300  0.94014700  0.90125700  1
  C  2067  1  0.78270200  0.95187000  0.91029400  1
  C  2068  1  0.79124700  0.98611900  0.90796900  1
  C  2069  1  0.77192300  0.00797600  0.89820700  1
  C  2074  1  0.78257900  0.04324800  0.89542300  1
  C  2075  1  0.77415200  0.05441600  0.87779700  1
  C  2083  1  0.81075100  0.94084800  0.35670000  1
  C  2084  1  0.82806800  0.96447600  0.36646500  1
  C  2085  1  0.81196600  0.98426000  0.37839100  1
  C  2086  1  0.77691800  0.98065100  0.38086000  1
  C  2087  1  0.76061000  0.95278000  0.37353400  1
  C  2088  1  0.77735400  0.93384600  0.36149800  1
  C  2090  1  0.75732600  0.00299100  0.39080600  1
  C  2091  1  0.76405900  0.03770400  0.39167600  1
  C  2092  1  0.74442000  0.05923500  0.40122000  1
  C  2093  1  0.71654900  0.04749900  0.41027400  1
  C  2094  1  0.70800100  0.01325100  0.40794600  1
  C  2095  1  0.72732300  0.99140000  0.39818000  1
  C  2100  1  0.71667400  0.95612600  0.39539600  1
  C  2101  1  0.72513600  0.94494100  0.37777600  1
  C  2109  1  0.69863500  0.94745100  0.60404200  1
  C  2110  1  0.72514100  0.93138900  0.61246500  1
  C  2111  1  0.74540400  0.94786700  0.62409900  1
  C  2112  1  0.73994300  0.98239700  0.62746900  1
  C  2113  1  0.71090700  0.99777500  0.62072300  1
  C  2114  1  0.69120000  0.98052000  0.60916700  1
  C  2116  1  0.76076000  0.00194500  0.63825700  1
  C  2117  1  0.79567800  0.99682800  0.63972700  1
  C  2118  1  0.81519500  0.01572100  0.65058200  1
  C  2119  1  0.80123400  0.04150000  0.66033600  1
  C  2120  1  0.76690500  0.04882000  0.65741500  1
  C  2121  1  0.74696700  0.02999500  0.64652600  1
  C  2126  1  0.71134800  0.03924700  0.64358300  1
  C  2127  1  0.70167100  0.03255000  0.62560600  1
  C  2135  1  0.80071800  0.05190400  0.10405400  1
  C  2136  1  0.77424000  0.06798400  0.11248900  1
  C  2137  1  0.75398400  0.05151600  0.12412900  1
  C  2138  1  0.75941200  0.01697500  0.12748500  1
  C  2139  1  0.78843100  0.00158000  0.12073100  1
  C  2140  1  0.80814300  0.01883200  0.10917500  1
  C  2142  1  0.73859800  0.99743700  0.13827900  1
  C  2143  1  0.70368500  0.00257500  0.13975600  1
  C  2144  1  0.68416800  0.98369700  0.15061600  1
  C  2145  1  0.69811400  0.95789200  0.16035800  1
  C  2146  1  0.73243800  0.95055000  0.15742800  1
  C  2147  1  0.75237800  0.96937000  0.14654000  1
  C  2152  1  0.78799000  0.96009900  0.14358700  1
  C  2153  1  0.79765200  0.96679800  0.12560800  1
  C  2161  1  0.80430000  0.44859100  0.64586700  1
  C  2162  1  0.82001700  0.47486900  0.63709300  1
  C  2163  1  0.80321800  0.49472700  0.62545500  1
  C  2164  1  0.76866100  0.48899800  0.62240900  1
  C  2165  1  0.75376900  0.45969900  0.62912200  1
  C  2166  1  0.77136400  0.44042500  0.64077200  1
  C  2168  1  0.74886400  0.50991000  0.61185100  1
  C  2169  1  0.75380400  0.54488000  0.61073300  1
  C  2170  1  0.73526900  0.56456500  0.59984300  1
  C  2171  1  0.71005600  0.55068900  0.58972500  1
  C  2172  1  0.70263600  0.51627000  0.59242000  1
  C  2173  1  0.72100000  0.49618000  0.60344800  1
  C  2178  1  0.71185900  0.46047800  0.60628900  1
  C  2179  1  0.71915100  0.45005200  0.62415400  1
  C  2187  1  0.69504000  0.55075700  0.14589000  1
  C  2188  1  0.67935400  0.52443900  0.13713200  1
  C  2189  1  0.69618300  0.50456200  0.12551200  1
  C  2190  1  0.73073500  0.51031600  0.12246600  1
  C  2191  1  0.74559500  0.53964700  0.12916200  1
  C  2192  1  0.72796700  0.55895100  0.14079000  1
  C  2194  1  0.75055200  0.48940300  0.11191600  1
  C  2195  1  0.74564200  0.45442800  0.11080700  1
  C  2196  1  0.76418700  0.43474800  0.09991900  1
  C  2197  1  0.78935000  0.44864400  0.08977700  1
  C  2198  1  0.79675300  0.48307100  0.09246600  1
  C  2199  1  0.77839300  0.50315100  0.10350200  1
  C  2204  1  0.78751200  0.53886300  0.10633300  1
  C  2205  1  0.78020900  0.54930400  0.12419500  1
  C  2213  1  0.80194300  0.55718300  0.89225500  1
  C  2214  1  0.77849600  0.57434700  0.88232200  1
  C  2215  1  0.75954500  0.55822500  0.87010400  1
  C  2216  1  0.76385900  0.52330700  0.86751700  1
  C  2217  1  0.79181800  0.50733700  0.87491600  1
  C  2218  1  0.80989900  0.52409600  0.88726600  1
  C  2220  1  0.74195200  0.50355400  0.85745800  1
  C  2221  1  0.70716200  0.50979700  0.85667900  1
  C  2222  1  0.68594900  0.49023300  0.84696400  1
  C  2223  1  0.69809600  0.46296500  0.83759800  1
  C  2224  1  0.73242100  0.45468900  0.83991800  1
  C  2225  1  0.75394600  0.47387000  0.84994400  1
  C  2230  1  0.78931500  0.46362200  0.85281100  1
  C  2231  1  0.80041300  0.47213600  0.87046300  1
  C  2239  1  0.69733500  0.44219600  0.39221700  1
  C  2240  1  0.72079200  0.42503900  0.38229000  1
  C  2241  1  0.73973800  0.44116600  0.37007100  1
  C  2242  1  0.73544200  0.47608900  0.36750000  1
  C  2243  1  0.70748300  0.49205900  0.37489800  1
  C  2244  1  0.68937400  0.47528300  0.38723400  1
  C  2246  1  0.75736300  0.49584600  0.35745200  1
  C  2247  1  0.79215100  0.48959100  0.35667900  1
  C  2248  1  0.81337400  0.50914300  0.34696300  1
  C  2249  1  0.80124400  0.53642300  0.33760300  1
  C  2250  1  0.76692800  0.54472700  0.33992600  1
  C  2251  1  0.74538700  0.52554600  0.34994700  1
  C  2256  1  0.71001800  0.53580700  0.35280800  1
  C  2257  1  0.69889800  0.52726700  0.37045300  1
  C  2265  1  0.20023700  0.54531100  0.35359100  1
  C  2266  1  0.18459400  0.51898800  0.36235400  1
  C  2267  1  0.20115000  0.49976700  0.37432900  1
  C  2268  1  0.23557300  0.50585400  0.37762500  1
  C  2269  1  0.25055200  0.53485500  0.37066100  1
  C  2270  1  0.23310600  0.55364000  0.35876000  1
  C  2272  1  0.25529400  0.48539500  0.38845800  1
  C  2273  1  0.25020500  0.45052500  0.38991200  1
  C  2274  1  0.26875900  0.43116600  0.40090800  1
  C  2275  1  0.29442800  0.44509900  0.41075700  1
  C  2276  1  0.30190800  0.47940100  0.40779900  1
  C  2277  1  0.28331600  0.49925300  0.39671400  1
  C  2282  1  0.29246200  0.53483500  0.39356200  1
  C  2283  1  0.28514400  0.54467700  0.37561600  1
  C  2291  1  0.29896700  0.45402000  0.85356900  1
  C  2292  1  0.31459100  0.48037500  0.86231600  1
  C  2293  1  0.29801800  0.49963700  0.87427100  1
  C  2294  1  0.26359400  0.49354400  0.87756800  1
  C  2295  1  0.24863200  0.46452100  0.87061700  1
  C  2296  1  0.26609900  0.44569300  0.85874000  1
  C  2298  1  0.24387000  0.51400100  0.88840400  1
  C  2299  1  0.24896100  0.54887100  0.88987400  1
  C  2300  1  0.23041900  0.56821200  0.90088400  1
  C  2301  1  0.20478400  0.55425400  0.91074500  1
  C  2302  1  0.19729700  0.51996000  0.90777200  1
  C  2303  1  0.21586600  0.50012800  0.89667000  1
  C  2308  1  0.20671700  0.46455100  0.89351200  1
  C  2309  1  0.21403200  0.45471400  0.87556600  1
  C  2317  1  0.19634800  0.43707100  0.10229700  1
  C  2318  1  0.22137200  0.42001600  0.11132000  1
  C  2319  1  0.24086900  0.43557000  0.12350200  1
  C  2320  1  0.23638800  0.47026700  0.12671900  1
  C  2321  1  0.20836600  0.48665500  0.11956800  1
  C  2322  1  0.18917500  0.47015500  0.10752900  1
  C  2324  1  0.25772700  0.48914500  0.13747600  1
  C  2325  1  0.29230900  0.48234700  0.13893200  1
  C  2326  1  0.31275300  0.50064400  0.14955000  1
  C  2327  1  0.30028700  0.52770300  0.15896700  1
  C  2328  1  0.26630700  0.53658100  0.15608500  1
  C  2329  1  0.24534600  0.51821200  0.14542600  1
  C  2334  1  0.21018900  0.52886500  0.14230100  1
  C  2335  1  0.20002900  0.52171400  0.12439400  1
  C  2343  1  0.30297800  0.56216800  0.60226500  1
  C  2344  1  0.27792000  0.57921900  0.61126700  1
  C  2345  1  0.25840100  0.56367600  0.62344300  1
  C  2346  1  0.26287700  0.52897800  0.62666700  1
  C  2347  1  0.29091900  0.51258800  0.61953500  1
  C  2348  1  0.31014200  0.52908600  0.60750800  1
  C  2350  1  0.24153500  0.51011300  0.63742900  1
  C  2351  1  0.20694800  0.51689400  0.63887200  1
  C  2352  1  0.18650900  0.49862700  0.64950800  1
  C  2353  1  0.19898200  0.47159300  0.65894000  1
  C  2354  1  0.23296700  0.46272200  0.65606500  1
  C  2355  1  0.25392700  0.48107400  0.64539700  1
  C  2360  1  0.28909000  0.47042800  0.64228500  1
  C  2361  1  0.29925800  0.47754200  0.62437700  1
  N  728  1  0.17383100  0.26903700  0.03151100  1
  N  754  1  0.32581400  0.73021900  0.53151900  1
  N  780  1  0.97569600  0.92590500  0.28361500  1
  N  806  1  0.52366500  0.07343600  0.78358200  1
  N  832  1  0.28743700  0.26284000  0.47056700  1
  N  858  1  0.21096700  0.73647900  0.97078000  1
  N  884  1  0.51629300  0.93535700  0.22287400  1
  N  910  1  0.98302300  0.06422100  0.72286600  1
  N  936  1  0.79584100  0.71580700  0.96846000  1
  N  962  1  0.70347200  0.28357600  0.46841700  1
  N  988  1  0.68973200  0.73471800  0.52864000  1
  N  1014  1  0.80975900  0.26466600  0.02865800  1
  N  1040  1  0.46103400  0.47253500  0.78272600  1
  N  1066  1  0.03828800  0.52668900  0.28268800  1
  N  1092  1  0.01618400  0.47746400  0.71880000  1
  N  1118  1  0.48313600  0.52189400  0.21880600  1
  N  1144  1  0.98698100  0.10677000  0.05089000  1
  N  1170  1  0.51236700  0.89261300  0.55088500  1
  N  1196  1  0.13571800  0.72894100  0.30050800  1
  N  1222  1  0.36357200  0.27032500  0.80051800  1
  N  1248  1  0.52992500  0.14538300  0.44496200  1
  N  1274  1  0.96936800  0.85399800  0.94491500  1
  N  1300  1  0.40204500  0.71357000  0.19222400  1
  N  1326  1  0.09729600  0.28570600  0.69220900  1
  N  1352  1  0.91041700  0.26689300  0.67669500  1
  N  1378  1  0.58881600  0.73248100  0.17657000  1
  N  1404  1  0.60474300  0.27579100  0.80006900  1
  N  1430  1  0.89479800  0.72355500  0.30013900  1
  N  1456  1  0.48755500  0.66330400  0.57276900  1
  N  1482  1  0.01178400  0.33603700  0.07265100  1
  N  1508  1  0.01749300  0.64394700  0.95038600  1
  N  1534  1  0.48176600  0.35519800  0.45023000  1
  N  1560  1  0.14983800  0.07878600  0.98730800  1
  N  1586  1  0.34956400  0.92054500  0.48731500  1
  N  1612  1  0.17222200  0.89252600  0.23675800  1
  N  1638  1  0.32712700  0.10672200  0.73674900  1
  N  1664  1  0.84783100  0.92343000  0.01234700  1
  N  1690  1  0.65153000  0.07594500  0.51234500  1
  N  1716  1  0.82725400  0.07778700  0.76517000  1
  N  1742  1  0.67212900  0.92129900  0.26517000  1
  N  1768  1  0.67328900  0.58053500  0.48485600  1
  N  1794  1  0.82575600  0.41879100  0.98488000  1
  N  1820  1  0.67557600  0.39696000  0.73544900  1
  N  1846  1  0.82363900  0.60255100  0.23546700  1
  N  1872  1  0.35870300  0.42996400  0.51386000  1
  N  1898  1  0.14084100  0.56928400  0.01390100  1
  N  1924  1  0.32513300  0.59734600  0.26086100  1
  N  1950  1  0.17416800  0.40198700  0.76084300  1
  N  1976  1  0.32658000  0.00915700  0.11698900  1
  N  2002  1  0.17276500  0.99008200  0.61700600  1
  N  2028  1  0.23795200  0.07065500  0.36509300  1
  N  2054  1  0.26152200  0.92854800  0.86515200  1
  N  2080  1  0.66819400  0.99292000  0.88816200  1
  N  2106  1  0.83104900  0.00650500  0.38814700  1
  N  2132  1  0.76962300  0.92920700  0.63289200  1
  N  2158  1  0.72979000  0.07018500  0.13293300  1
  N  2184  1  0.82152500  0.51878300  0.61637000  1
  N  2210  1  0.67790300  0.48045800  0.11644300  1
  N  2236  1  0.73741600  0.57714300  0.86020400  1
  N  2262  1  0.76185200  0.42225100  0.36016300  1
  N  2288  1  0.18261600  0.47604700  0.38351900  1
  N  2314  1  0.31653800  0.52340200  0.88343900  1
  N  2340  1  0.26316800  0.41589300  0.13296500  1
  N  2366  1  0.23606400  0.58335000  0.63288500  1
  O  729  1  0.14405100  0.27473600  0.02731900  1
  O  730  1  0.19289600  0.27996200  0.02056700  1
  O  755  1  0.35561900  0.72450700  0.52737000  1
  O  756  1  0.30681100  0.71931700  0.52054400  1
  O  781  1  0.96893200  0.89713500  0.27828700  1
  O  782  1  0.96456300  0.94714800  0.27371200  1
  O  807  1  0.53039900  0.10221100  0.77825500  1
  O  808  1  0.53483500  0.05220700  0.77368400  1
  O  833  1  0.31023500  0.26768700  0.48085700  1
  O  834  1  0.26026200  0.27320000  0.47641700  1
  O  859  1  0.18789200  0.73160400  0.98092200  1
  O  860  1  0.23798800  0.72614800  0.97680500  1
  O  885  1  0.52152800  0.90696000  0.22902700  1
  O  886  1  0.52681400  0.95724100  0.23260500  1
  O  911  1  0.97782000  0.09265700  0.72898300  1
  O  912  1  0.97244900  0.04240400  0.73262000  1
  O  937  1  0.82383500  0.71160100  0.97520000  1
  O  938  1  0.77409700  0.70055600  0.97666500  1
  O  963  1  0.67548600  0.28778200  0.47516400  1
  O  964  1  0.72522400  0.29884000  0.47661300  1
  O  989  1  0.66131500  0.72998100  0.52241300  1
  O  990  1  0.71155100  0.72429900  0.51884900  1
  O  1015  1  0.83820100  0.26938800  0.02245600  1
  O  1016  1  0.78798500  0.27512200  0.01885400  1
  O  1041  1  0.45465800  0.45032000  0.77233200  1
  O  1042  1  0.44748400  0.49940600  0.77824600  1
  O  1067  1  0.04466600  0.54892100  0.27230200  1
  O  1068  1  0.05184900  0.49982400  0.27820300  1
  O  1093  1  0.02266100  0.45474900  0.72892000  1
  O  1094  1  0.02533800  0.50501700  0.72470500  1
  O  1119  1  0.47666500  0.54460700  0.22892900  1
  O  1120  1  0.47398700  0.49434100  0.22471300  1
  O  1145  1  0.97597400  0.09364300  0.03805300  1
  O  1146  1  0.98497200  0.13807100  0.04957400  1
  O  1171  1  0.52338700  0.90574200  0.53805200  1
  O  1172  1  0.51435100  0.86131000  0.54956300  1
  O  1197  1  0.14862000  0.71829000  0.28754600  1
  O  1198  1  0.10445600  0.72581700  0.29952500  1
  O  1223  1  0.35067400  0.28094100  0.78754800  1
  O  1224  1  0.39483000  0.27350100  0.79954600  1
  O  1249  1  0.53287900  0.14243900  0.46013600  1
  O  1250  1  0.54112500  0.17356300  0.44083500  1
  O  1275  1  0.96643000  0.85692400  0.96009100  1
  O  1276  1  0.95816500  0.82582400  0.94078300  1
  O  1301  1  0.39986100  0.71033100  0.20741400  1
  O  1302  1  0.43015700  0.70275800  0.18776300  1
  O  1327  1  0.09948900  0.28894700  0.70739800  1
  O  1328  1  0.06917200  0.29649700  0.68775400  1
  O  1353  1  0.92339000  0.27665500  0.68980200  1
  O  1354  1  0.93097300  0.27178800  0.66536500  1
  O  1379  1  0.57580800  0.72272400  0.18966900  1
  O  1380  1  0.56829500  0.72757100  0.16522600  1
  O  1405  1  0.60881400  0.27967100  0.78500900  1
  O  1406  1  0.57571000  0.28531700  0.80376900  1
  O  1431  1  0.89073700  0.71968500  0.28507900  1
  O  1432  1  0.92382400  0.71400600  0.30384100  1
  O  1457  1  0.47836600  0.67655600  0.55963000  1
  O  1458  1  0.48286800  0.68391300  0.58409600  1
  O  1483  1  0.02098400  0.32283500  0.05950100  1
  O  1484  1  0.01643700  0.31537800  0.08396000  1
  O  1509  1  0.02151100  0.63865400  0.96534600  1
  O  1510  1  0.02697200  0.67326400  0.94721900  1
  O  1535  1  0.47778000  0.36040900  0.46519900  1
  O  1536  1  0.47225600  0.32590700  0.44702900  1
  O  1561  1  0.11903300  0.08183000  0.99019400  1
  O  1562  1  0.16214600  0.10758500  0.98576300  1
  O  1587  1  0.38037100  0.91754400  0.49020900  1
  O  1588  1  0.33730200  0.89172900  0.48575600  1
  O  1613  1  0.16879200  0.86185600  0.23986700  1
  O  1614  1  0.14364300  0.90494800  0.23458800  1
  O  1639  1  0.33056600  0.13739100  0.73985400  1
  O  1640  1  0.35570400  0.09429200  0.73458000  1
  O  1665  1  0.87830700  0.91815700  0.00941800  1
  O  1666  1  0.83388500  0.89579200  0.01512800  1
  O  1691  1  0.62105100  0.08123000  0.50942200  1
  O  1692  1  0.66548800  0.10357700  0.51512400  1
  O  1717  1  0.83859400  0.10713800  0.76618000  1
  O  1718  1  0.85144300  0.05761600  0.76494200  1
  O  1743  1  0.66083600  0.89192400  0.26615900  1
  O  1744  1  0.64790800  0.94143200  0.26496200  1
  O  1769  1  0.64345900  0.59065700  0.48420200  1
  O  1770  1  0.69243800  0.60553700  0.48508000  1
  O  1795  1  0.85557400  0.40863600  0.98420300  1
  O  1796  1  0.80658300  0.39380800  0.98512200  1
  O  1821  1  0.67145500  0.36658600  0.73898700  1
  O  1822  1  0.64768200  0.40917900  0.73157800  1
  O  1847  1  0.82776500  0.63292500  0.23900700  1
  O  1848  1  0.85153100  0.59033700  0.23158700  1
  O  1873  1  0.38929200  0.42569800  0.51084000  1
  O  1874  1  0.34617000  0.40220000  0.51772400  1
  O  1899  1  0.11024200  0.57360600  0.01092000  1
  O  1900  1  0.15344500  0.59702300  0.01774700  1
  O  1925  1  0.32994500  0.62785500  0.25782900  1
  O  1926  1  0.35295400  0.58383400  0.26372000  1
  O  1951  1  0.16934600  0.37148100  0.75781100  1
  O  1952  1  0.14635200  0.41550700  0.76370600  1
  O  1977  1  0.33737000  0.03076400  0.12681300  1
  O  1978  1  0.35095700  0.99742700  0.10917100  1
  O  2003  1  0.16198500  0.96848600  0.62683800  1
  O  2004  1  0.14838100  0.00179900  0.60918700  1
  O  2029  1  0.21583800  0.08196300  0.37450800  1
  O  2030  1  0.25004500  0.09461600  0.35710300  1
  O  2055  1  0.28362600  0.91729300  0.87458700  1
  O  2056  1  0.24947500  0.90455000  0.85717400  1
  O  2081  1  0.65269700  0.97158500  0.87978600  1
  O  2082  1  0.64733700  0.00850800  0.89675200  1
  O  2107  1  0.84653800  0.02783200  0.37976300  1
  O  2108  1  0.85190600  0.99095600  0.39675300  1
  O  2133  1  0.79098400  0.91589500  0.62368700  1
  O  2134  1  0.75628100  0.90670700  0.64140000  1
  O  2159  1  0.70843000  0.08352300  0.12373900  1
  O  2160  1  0.74316500  0.09266600  0.14144200  1
  O  2185  1  0.83514800  0.54038900  0.62533000  1
  O  2186  1  0.84373500  0.50525800  0.60775200  1
  O  2211  1  0.66430100  0.45886400  0.12541700  1
  O  2212  1  0.65568100  0.49393000  0.10781200  1
  O  2237  1  0.71551400  0.59218800  0.86843000  1
  O  2238  1  0.75302700  0.59837600  0.85184500  1
  O  2263  1  0.78374900  0.40718000  0.36837900  1
  O  2264  1  0.74622600  0.40103800  0.35179800  1
  O  2289  1  0.16937000  0.45397000  0.37469400  1
  O  2290  1  0.16007100  0.48986200  0.39182000  1
  O  2315  1  0.32976200  0.54545600  0.87459200  1
  O  2316  1  0.33909600  0.50963900  0.89175000  1
  O  2341  1  0.28484900  0.40136400  0.12439000  1
  O  2342  1  0.24778300  0.39420400  0.14115100  1
  O  2367  1  0.21439900  0.59785700  0.62429000  1
  O  2368  1  0.25141700  0.60505600  0.64107400  1
