# generated using pymatgen
data_H14C13
_symmetry_space_group_name_H-M   'P 1'
_cell_length_a   28.13440000
_cell_length_b   28.13440000
_cell_length_c   28.13440000
_cell_angle_alpha   90.00000000
_cell_angle_beta   90.00000000
_cell_angle_gamma   90.00000000
_symmetry_Int_Tables_number   1
_chemical_formula_structural   H14C13
_chemical_formula_sum   'H448 C416'
_cell_volume   22269.62854996
_cell_formula_units_Z   32
loop_
 _symmetry_equiv_pos_site_id
 _symmetry_equiv_pos_as_xyz
  1  'x, y, z'
loop_
 _atom_site_type_symbol
 _atom_site_label
 _atom_site_symmetry_multiplicity
 _atom_site_fract_x
 _atom_site_fract_y
 _atom_site_fract_z
 _atom_site_occupancy
  H  5  1  0.15919200  0.12114500  0.23070500  1
  H  6  1  0.21251000  0.11067500  0.20413300  1
  H  9  1  0.21119200  0.08615900  0.10911400  1
  H  10  1  0.15674200  0.06474400  0.08698800  1
  H  11  1  0.22696200  0.17668700  0.11587400  1
  H  12  1  0.18053400  0.21580700  0.11133700  1
  H  15  1  0.09035000  0.12609900  0.06784000  1
  H  16  1  0.10170300  0.18691000  0.07742100  1
  H  18  1  0.08069800  0.07011800  0.13761300  1
  H  19  1  0.08390500  0.09186000  0.19594200  1
  H  21  1  0.11001200  0.21796900  0.15900400  1
  H  22  1  0.10563500  0.18341500  0.21092900  1
  H  27  1  0.83619200  0.87441900  0.23056000  1
  H  28  1  0.78290500  0.88485500  0.20390200  1
  H  31  1  0.78429800  0.90928000  0.10891300  1
  H  32  1  0.83875500  0.93069600  0.08679600  1
  H  33  1  0.76854200  0.81876900  0.11573100  1
  H  34  1  0.81498000  0.77964900  0.11123900  1
  H  37  1  0.90518600  0.86935100  0.06775700  1
  H  38  1  0.89384700  0.80854300  0.07738200  1
  H  40  1  0.91477600  0.92538500  0.13748800  1
  H  41  1  0.91153000  0.90368900  0.19583200  1
  H  43  1  0.88548000  0.77755600  0.15895900  1
  H  44  1  0.88979900  0.81212600  0.21087800  1
  H  49  1  0.83629200  0.12108900  0.76489500  1
  H  50  1  0.78296200  0.11065000  0.79146400  1
  H  53  1  0.78422700  0.08623800  0.88647900  1
  H  54  1  0.83865500  0.06481700  0.90866200  1
  H  55  1  0.76849600  0.17675700  0.87964800  1
  H  56  1  0.81493300  0.21586500  0.88418300  1
  H  59  1  0.90506500  0.12615600  0.92778800  1
  H  60  1  0.89375500  0.18696500  0.91814900  1
  H  62  1  0.91473600  0.07012000  0.85807300  1
  H  63  1  0.91157300  0.09181300  0.79972400  1
  H  65  1  0.88547700  0.21795700  0.83654000  1
  H  66  1  0.88985600  0.18336200  0.78464300  1
  H  71  1  0.15937300  0.87429800  0.76487700  1
  H  72  1  0.21264000  0.88479100  0.79156700  1
  H  75  1  0.21116600  0.90937300  0.88652500  1
  H  76  1  0.15667100  0.93075900  0.90857000  1
  H  77  1  0.22700000  0.81887200  0.87978600  1
  H  78  1  0.18060700  0.77970300  0.88431100  1
  H  81  1  0.09028500  0.86938600  0.92765300  1
  H  82  1  0.10169100  0.80858200  0.91811700  1
  H  84  1  0.08069900  0.92533200  0.85782400  1
  H  85  1  0.08402000  0.90355100  0.79951100  1
  H  87  1  0.11009100  0.77750300  0.83660100  1
  H  88  1  0.10576600  0.81197300  0.78461500  1
  H  93  1  0.12848200  0.21136300  0.77001300  1
  H  94  1  0.13570400  0.24375200  0.82269600  1
  H  97  1  0.13120900  0.20697400  0.90265200  1
  H  98  1  0.11836700  0.14683400  0.90997400  1
  H  99  1  0.20736200  0.23736000  0.86690500  1
  H  100  1  0.25345600  0.19878300  0.85982200  1
  H  103  1  0.18414400  0.08571600  0.88443200  1
  H  104  1  0.23647000  0.10905500  0.85907500  1
  H  106  1  0.10568000  0.09543500  0.84171900  1
  H  107  1  0.10456800  0.11727000  0.78446600  1
  H  109  1  0.23312000  0.13664100  0.76689300  1
  H  110  1  0.17855600  0.14945200  0.74464600  1
  H  115  1  0.86702300  0.78412800  0.76974700  1
  H  116  1  0.85986100  0.75170100  0.82243000  1
  H  119  1  0.86451000  0.78848200  0.90243100  1
  H  120  1  0.87730500  0.84862200  0.90971400  1
  H  121  1  0.78826900  0.75804900  0.86674500  1
  H  122  1  0.74216100  0.79662500  0.85974700  1
  H  125  1  0.81147900  0.90968900  0.88432500  1
  H  126  1  0.75913700  0.88635100  0.85900000  1
  H  128  1  0.88992000  0.90000700  0.84147000  1
  H  129  1  0.89092900  0.87819400  0.78420200  1
  H  131  1  0.76235000  0.85883300  0.76684300  1
  H  132  1  0.81688100  0.84604100  0.74449300  1
  H  137  1  0.12849600  0.78411700  0.22567300  1
  H  138  1  0.13569600  0.75175800  0.17296000  1
  H  141  1  0.13111600  0.78861000  0.09301200  1
  H  142  1  0.11828900  0.84875700  0.08576800  1
  H  143  1  0.20732400  0.75818100  0.12870500  1
  H  144  1  0.25341600  0.79676000  0.13577000  1
  H  147  1  0.18408400  0.90983100  0.11127700  1
  H  148  1  0.23643400  0.88648300  0.13658300  1
  H  150  1  0.10564300  0.90008500  0.15406400  1
  H  151  1  0.10459900  0.87821200  0.21130800  1
  H  153  1  0.23315300  0.85883000  0.22874500  1
  H  154  1  0.17860400  0.84601600  0.25103100  1
  H  159  1  0.86700100  0.21134200  0.22560400  1
  H  160  1  0.85982900  0.24376700  0.17293400  1
  H  163  1  0.86431800  0.20701600  0.09295900  1
  H  164  1  0.87710300  0.14687200  0.08561500  1
  H  165  1  0.78817600  0.23746400  0.12869800  1
  H  166  1  0.74204800  0.19892300  0.13575500  1
  H  169  1  0.81126200  0.08580800  0.11108900  1
  H  170  1  0.75895900  0.10917400  0.13647000  1
  H  172  1  0.88973500  0.09543100  0.15382700  1
  H  173  1  0.89086200  0.11720800  0.21110200  1
  H  175  1  0.76231100  0.13669200  0.22863600  1
  H  176  1  0.81687400  0.14945900  0.25091700  1
  H  181  1  0.66483600  0.61653600  0.72681400  1
  H  182  1  0.71559300  0.60947000  0.69162200  1
  H  185  1  0.70687000  0.58697800  0.60176400  1
  H  186  1  0.65048000  0.57273900  0.57901600  1
  H  187  1  0.73087600  0.67081800  0.62075200  1
  H  188  1  0.69098900  0.71823400  0.61394100  1
  H  191  1  0.58973300  0.63996300  0.56595400  1
  H  192  1  0.60480000  0.69884100  0.58047000  1
  H  194  1  0.57663500  0.57928600  0.63301100  1
  H  195  1  0.58359100  0.59720700  0.69236100  1
  H  197  1  0.61612400  0.72485900  0.66442400  1
  H  198  1  0.60829000  0.68539100  0.71238700  1
  H  203  1  0.33052500  0.37899500  0.72684600  1
  H  204  1  0.27977200  0.38602200  0.69164000  1
  H  207  1  0.28848600  0.40845000  0.60178200  1
  H  208  1  0.34487100  0.42272700  0.57903800  1
  H  209  1  0.26453200  0.32461000  0.62079800  1
  H  210  1  0.30445500  0.27722300  0.61399800  1
  H  213  1  0.40567700  0.35552500  0.56601100  1
  H  214  1  0.39062800  0.29664800  0.58055200  1
  H  216  1  0.41871800  0.41624800  0.63302100  1
  H  217  1  0.41177600  0.39836200  0.69238300  1
  H  219  1  0.37931400  0.27067400  0.66450600  1
  H  220  1  0.38710900  0.31016200  0.71245800  1
  H  225  1  0.33069200  0.61650800  0.26865100  1
  H  226  1  0.27991400  0.60942700  0.30381000  1
  H  229  1  0.28858200  0.58693200  0.39367400  1
  H  230  1  0.34496200  0.57268900  0.41645000  1
  H  231  1  0.26458200  0.67076500  0.37468700  1
  H  232  1  0.30445700  0.71818400  0.38152900  1
  H  235  1  0.40570600  0.63992400  0.42956200  1
  H  236  1  0.39063200  0.69880200  0.41505400  1
  H  238  1  0.41883500  0.57925800  0.36251700  1
  H  239  1  0.41192200  0.59717200  0.30316000  1
  H  241  1  0.37935000  0.72482700  0.33109700  1
  H  242  1  0.38720900  0.68537700  0.28312500  1
  H  247  1  0.66502500  0.37907600  0.26867100  1
  H  248  1  0.71576000  0.38611000  0.30390900  1
  H  251  1  0.70698000  0.40861300  0.39374900  1
  H  252  1  0.65058000  0.42289100  0.41645000  1
  H  253  1  0.73095100  0.32476100  0.37477600  1
  H  254  1  0.69103600  0.27736900  0.38157100  1
  H  257  1  0.58976500  0.35568100  0.42947700  1
  H  258  1  0.60484600  0.29680500  0.41498200  1
  H  260  1  0.57677000  0.41637200  0.36242100  1
  H  261  1  0.58376500  0.39845500  0.30307400  1
  H  263  1  0.61619100  0.27078600  0.33104200  1
  H  264  1  0.60842100  0.31025200  0.28306300  1
  H  269  1  0.62893000  0.71803400  0.26754300  1
  H  270  1  0.64097200  0.75169800  0.31759900  1
  H  273  1  0.63254500  0.72171700  0.39656000  1
  H  274  1  0.61496500  0.66382300  0.41090900  1
  H  275  1  0.72005300  0.73913700  0.36120900  1
  H  276  1  0.75504200  0.68937600  0.35152800  1
  H  279  1  0.67351300  0.59518900  0.39311200  1
  H  280  1  0.72844500  0.60937800  0.36803300  1
  H  282  1  0.59930500  0.60533600  0.34521000  1
  H  283  1  0.60294100  0.62314400  0.28647900  1
  H  285  1  0.73274600  0.63443900  0.27506100  1
  H  286  1  0.67930300  0.64523400  0.24662400  1
  H  291  1  0.36659300  0.27755200  0.26729800  1
  H  292  1  0.35465500  0.24390600  0.31741800  1
  H  295  1  0.36337300  0.27404100  0.39637900  1
  H  296  1  0.38092100  0.33195900  0.41054700  1
  H  297  1  0.27555300  0.25655700  0.36120500  1
  H  298  1  0.24068300  0.30638100  0.35151300  1
  H  301  1  0.32239400  0.40048100  0.39286000  1
  H  302  1  0.26739500  0.38633400  0.36790800  1
  H  304  1  0.39651000  0.39027300  0.34464800  1
  H  305  1  0.39260100  0.37230500  0.28595700  1
  H  307  1  0.26281900  0.36114100  0.27498700  1
  H  308  1  0.31618700  0.35032400  0.24642000  1
  H  313  1  0.62892300  0.27756700  0.72808600  1
  H  314  1  0.64091900  0.24393500  0.67798400  1
  H  317  1  0.63236400  0.27402600  0.59903800  1
  H  318  1  0.61478700  0.33193400  0.58479900  1
  H  319  1  0.72000400  0.25656300  0.63429400  1
  H  320  1  0.75493900  0.30634900  0.64400100  1
  H  323  1  0.67333100  0.40052000  0.60257100  1
  H  324  1  0.72829600  0.38633400  0.62760100  1
  H  326  1  0.59915200  0.39030800  0.65060800  1
  H  327  1  0.60291900  0.37240500  0.70931900  1
  H  329  1  0.73271800  0.36116200  0.72051500  1
  H  330  1  0.67930600  0.35035400  0.74901400  1
  H  335  1  0.36656800  0.71792400  0.72793000  1
  H  336  1  0.35450900  0.75155200  0.67786000  1
  H  339  1  0.36288300  0.72153200  0.59892100  1
  H  340  1  0.38044500  0.66363100  0.58458600  1
  H  341  1  0.27538300  0.73900200  0.63430800  1
  H  342  1  0.24039600  0.68924800  0.64402200  1
  H  345  1  0.32184600  0.59501400  0.60243200  1
  H  346  1  0.26694000  0.60925700  0.62755800  1
  H  348  1  0.39609500  0.60515900  0.65024900  1
  H  349  1  0.39254000  0.62293800  0.70898500  1
  H  351  1  0.26272300  0.63434000  0.72048700  1
  H  352  1  0.31618600  0.64513500  0.74889700  1
  H  358  1  0.20697700  0.30501900  0.27656400  1
  H  360  1  0.31982400  0.21555600  0.24654100  1
  H  362  1  0.14472400  0.31467600  0.23076100  1
  H  363  1  0.11481500  0.26095000  0.22930200  1
  H  364  1  0.14392700  0.28453800  0.17732500  1
  H  366  1  0.26991000  0.13628500  0.16208200  1
  H  367  1  0.30195800  0.13602400  0.21482200  1
  H  368  1  0.31625700  0.17619100  0.16852200  1
  H  374  1  0.78858500  0.69055200  0.27653300  1
  H  376  1  0.67567700  0.77995900  0.24654000  1
  H  378  1  0.85069700  0.68078800  0.23054800  1
  H  379  1  0.88066400  0.73449100  0.22912300  1
  H  380  1  0.85148700  0.71098300  0.17714400  1
  H  382  1  0.72550900  0.85911400  0.16190600  1
  H  383  1  0.69349500  0.85945500  0.21466800  1
  H  384  1  0.67917800  0.81920900  0.16844300  1
  H  390  1  0.78856000  0.30503700  0.71896600  1
  H  392  1  0.67569100  0.21558900  0.74892500  1
  H  394  1  0.85085700  0.31462900  0.76470700  1
  H  395  1  0.88071400  0.26087800  0.76620300  1
  H  396  1  0.85162200  0.28453200  0.81816400  1
  H  398  1  0.72554800  0.13633900  0.83344500  1
  H  399  1  0.69354100  0.13604500  0.78067700  1
  H  400  1  0.67921000  0.17623900  0.82694400  1
  H  406  1  0.20690600  0.69044900  0.71906900  1
  H  408  1  0.31983900  0.77988000  0.74890100  1
  H  410  1  0.14500800  0.68056400  0.76535400  1
  H  411  1  0.11491500  0.73420700  0.76665500  1
  H  412  1  0.14423000  0.71092900  0.81866200  1
  H  414  1  0.27006700  0.85908200  0.83353700  1
  H  415  1  0.30203700  0.85939900  0.78074800  1
  H  416  1  0.31640300  0.81918100  0.82698300  1
  H  422  1  0.34270600  0.24227800  0.73042500  1
  H  424  1  0.22750200  0.32772800  0.69721700  1
  H  426  1  0.33875600  0.19909300  0.80660900  1
  H  427  1  0.32511600  0.16155000  0.75792900  1
  H  428  1  0.29228400  0.15878500  0.80995400  1
  H  430  1  0.16863500  0.30988400  0.80056700  1
  H  431  1  0.13724100  0.28696100  0.74973200  1
  H  432  1  0.16830900  0.34001000  0.74712700  1
  H  438  1  0.65274400  0.75319800  0.73041800  1
  H  440  1  0.76790600  0.66773700  0.69709600  1
  H  442  1  0.65677500  0.79633400  0.80663400  1
  H  443  1  0.67036000  0.83391000  0.75796400  1
  H  444  1  0.70324800  0.83664000  0.80995700  1
  H  446  1  0.82690500  0.68556900  0.80035700  1
  H  447  1  0.85823300  0.70850900  0.74949400  1
  H  448  1  0.82716800  0.65545600  0.74691000  1
  H  454  1  0.34276100  0.75320100  0.26511500  1
  H  456  1  0.22759600  0.66768300  0.29828200  1
  H  458  1  0.33876800  0.79641500  0.18893600  1
  H  459  1  0.32515100  0.83393200  0.23764100  1
  H  460  1  0.29229100  0.83672200  0.18563300  1
  H  462  1  0.16867400  0.68561200  0.19497700  1
  H  463  1  0.13730300  0.70847700  0.24584900  1
  H  464  1  0.16838400  0.65543100  0.24838700  1
  H  470  1  0.65279800  0.24238600  0.26512500  1
  H  472  1  0.76801900  0.32778600  0.29838800  1
  H  474  1  0.65673900  0.19923300  0.18893300  1
  H  475  1  0.67034200  0.16166100  0.23760000  1
  H  476  1  0.70318400  0.15889500  0.18557900  1
  H  478  1  0.82697200  0.30991600  0.19511100  1
  H  479  1  0.85830000  0.28691700  0.24594800  1
  H  480  1  0.82729600  0.33999900  0.24857400  1
  H  486  1  0.03314900  0.14924500  0.22187400  1
  H  488  1  0.02382000  0.18630900  0.07884600  1
  H  490  1  0.98095800  0.17668300  0.27615100  1
  H  491  1  0.92203700  0.16322900  0.26350700  1
  H  492  1  0.94407800  0.22133700  0.25374800  1
  H  494  1  0.93509900  0.22446300  0.05264100  1
  H  495  1  0.97895700  0.25983000  0.08032700  1
  H  496  1  0.92188100  0.25946400  0.10401100  1
  H  502  1  0.96228300  0.84631100  0.22186600  1
  H  504  1  0.97171600  0.80913300  0.07887400  1
  H  506  1  0.01439100  0.81868700  0.27617400  1
  H  507  1  0.07332800  0.83215800  0.26361800  1
  H  508  1  0.05130500  0.77406900  0.25374800  1
  H  510  1  0.06032100  0.77092300  0.05274400  1
  H  511  1  0.01656300  0.73553300  0.08055900  1
  H  512  1  0.07369000  0.73600900  0.10412600  1
  H  518  1  0.96232900  0.14923700  0.77376000  1
  H  520  1  0.97166300  0.18627300  0.91678000  1
  H  522  1  0.01445600  0.17683000  0.71949200  1
  H  523  1  0.07337600  0.16332700  0.73208800  1
  H  524  1  0.05137500  0.22143700  0.74192300  1
  H  526  1  0.06042100  0.22433400  0.94301500  1
  H  527  1  0.01656300  0.25975800  0.91540800  1
  H  528  1  0.07362600  0.25941400  0.89169700  1
  H  534  1  0.03326500  0.84622600  0.77356800  1
  H  536  1  0.02385500  0.80886300  0.91648900  1
  H  538  1  0.98112100  0.81872600  0.71923200  1
  H  539  1  0.92219000  0.83220100  0.73182900  1
  H  540  1  0.94419900  0.77409000  0.74161100  1
  H  542  1  0.93532300  0.77056100  0.94258100  1
  H  543  1  0.97901700  0.73522300  0.91458700  1
  H  544  1  0.92184500  0.73580300  0.89112500  1
  H  550  1  0.23756600  0.03490800  0.16116200  1
  H  552  1  0.10640200  0.02525300  0.22702100  1
  H  554  1  0.29272700  0.97980300  0.20875600  1
  H  555  1  0.28642800  0.95470200  0.15139300  1
  H  556  1  0.27905100  0.91952800  0.20305800  1
  H  558  1  0.08304800  0.94149700  0.26367300  1
  H  559  1  0.12615100  0.97030500  0.29937400  1
  H  560  1  0.13492100  0.91092600  0.28257900  1
  H  566  1  0.23760200  0.96057000  0.83442900  1
  H  568  1  0.10638800  0.97027700  0.76861700  1
  H  570  1  0.29274800  0.01574900  0.78693200  1
  H  571  1  0.28645900  0.04082900  0.84430300  1
  H  572  1  0.27905300  0.07601600  0.79265100  1
  H  574  1  0.08299000  0.05407800  0.73203200  1
  H  575  1  0.12609300  0.02529200  0.69631400  1
  H  576  1  0.13486700  0.08465600  0.71314700  1
  H  582  1  0.75791400  0.96062700  0.16085200  1
  H  584  1  0.88890700  0.97022000  0.22698100  1
  H  586  1  0.70270500  0.01569900  0.20844000  1
  H  587  1  0.70902800  0.04084400  0.15109700  1
  H  588  1  0.71637800  0.07598400  0.20279300  1
  H  590  1  0.91229500  0.05397800  0.26359000  1
  H  591  1  0.86912700  0.02522800  0.29926000  1
  H  592  1  0.86042900  0.08460400  0.28242600  1
  H  598  1  0.75792200  0.03486800  0.83453600  1
  H  600  1  0.88898900  0.02528300  0.76854200  1
  H  602  1  0.70272200  0.97974200  0.78703500  1
  H  603  1  0.70909200  0.95461300  0.84437800  1
  H  604  1  0.71643100  0.91947100  0.79268300  1
  H  606  1  0.91237300  0.94152200  0.73184700  1
  H  607  1  0.86919800  0.97033400  0.69623900  1
  H  608  1  0.86048300  0.91094400  0.71300900  1
  H  614  1  0.16306700  0.22236200  0.03469400  1
  H  616  1  0.21637700  0.08415300  0.02734500  1
  H  618  1  0.19929800  0.27907600  0.98812700  1
  H  619  1  0.17217700  0.26802700  0.93330100  1
  H  620  1  0.23480600  0.26131900  0.94053400  1
  H  622  1  0.28478000  0.11169500  0.92164300  1
  H  623  1  0.25067400  0.05981600  0.93487500  1
  H  624  1  0.28779200  0.08636200  0.97801800  1
  H  630  1  0.83243500  0.22247100  0.96085100  1
  H  632  1  0.77896300  0.08432100  0.96823000  1
  H  634  1  0.79640100  0.27923700  0.00749000  1
  H  635  1  0.82345300  0.26810900  0.06233200  1
  H  636  1  0.76082200  0.26151700  0.05504700  1
  H  638  1  0.71060900  0.11199300  0.07394000  1
  H  639  1  0.74459600  0.06004600  0.06066400  1
  H  640  1  0.70752400  0.08670300  0.01754700  1
  H  646  1  0.16299700  0.77316300  0.96091500  1
  H  648  1  0.21622200  0.91140200  0.96831500  1
  H  650  1  0.19904000  0.71641700  0.00753600  1
  H  651  1  0.17202500  0.72752500  0.06239800  1
  H  652  1  0.23465000  0.73416100  0.05506200  1
  H  654  1  0.28467300  0.88379200  0.07395100  1
  H  655  1  0.25057700  0.93570700  0.06083600  1
  H  656  1  0.28762200  0.90920600  0.01760700  1
  H  662  1  0.83262400  0.77304900  0.03459800  1
  H  664  1  0.77912700  0.91119600  0.02717400  1
  H  666  1  0.79677100  0.71623200  0.98791000  1
  H  667  1  0.82368100  0.72739000  0.93300900  1
  H  668  1  0.76106700  0.73394700  0.94044200  1
  H  670  1  0.71075500  0.88341900  0.92151500  1
  H  671  1  0.74470300  0.93542600  0.93466600  1
  H  672  1  0.70771300  0.90880100  0.97787300  1
  H  678  1  0.53507700  0.65280100  0.72116900  1
  H  680  1  0.52599600  0.70422200  0.58298300  1
  H  682  1  0.47564100  0.69613600  0.77519200  1
  H  683  1  0.46242600  0.63543100  0.76551700  1
  H  684  1  0.41780800  0.67799500  0.76289100  1
  H  686  1  0.43502500  0.74014600  0.55921500  1
  H  687  1  0.47800100  0.77564000  0.58810500  1
  H  688  1  0.42128100  0.77226000  0.61237800  1
  H  694  1  0.46030400  0.34285300  0.72125100  1
  H  696  1  0.46940700  0.29117900  0.58316100  1
  H  698  1  0.51948100  0.29938800  0.77533800  1
  H  699  1  0.53306500  0.36001800  0.76568800  1
  H  700  1  0.57743800  0.31716400  0.76309700  1
  H  702  1  0.56017100  0.25507900  0.55947800  1
  H  703  1  0.51732700  0.21962800  0.58862400  1
  H  704  1  0.57413300  0.22313800  0.61268300  1
  H  710  1  0.46040000  0.65277600  0.27436100  1
  H  712  1  0.46944600  0.70428600  0.41250200  1
  H  714  1  0.51968700  0.69624600  0.22030900  1
  H  715  1  0.53307300  0.63557700  0.22995900  1
  H  716  1  0.57758000  0.67826500  0.23257400  1
  H  718  1  0.56034900  0.74031700  0.43624800  1
  H  719  1  0.51737300  0.77577500  0.40730900  1
  H  720  1  0.57411500  0.77241300  0.38308200  1
  H  726  1  0.53524400  0.34301700  0.27420900  1
  H  728  1  0.52613800  0.29102600  0.41217100  1
  H  730  1  0.47627700  0.29943900  0.22003600  1
  H  731  1  0.46241200  0.36000400  0.22967900  1
  H  732  1  0.41822800  0.31693700  0.23223100  1
  H  734  1  0.43559400  0.25466700  0.43575100  1
  H  735  1  0.47831800  0.21932100  0.40628500  1
  H  736  1  0.42141600  0.22297800  0.38246000  1
  H  742  1  0.73266800  0.53439500  0.65268800  1
  H  744  1  0.59892800  0.52507500  0.71368400  1
  H  746  1  0.78689700  0.47771300  0.69794200  1
  H  747  1  0.77951100  0.45610600  0.63933700  1
  H  748  1  0.77391300  0.41786500  0.68861100  1
  H  750  1  0.57556900  0.44122400  0.75171900  1
  H  751  1  0.61672800  0.47387500  0.78632400  1
  H  752  1  0.62835400  0.41418300  0.77369600  1
  H  758  1  0.73282100  0.46122100  0.34284100  1
  H  760  1  0.59911300  0.47055800  0.28176900  1
  H  762  1  0.78704600  0.51801300  0.29772300  1
  H  763  1  0.77962100  0.53955900  0.35634600  1
  H  764  1  0.77401600  0.57784300  0.30710400  1
  H  766  1  0.57568200  0.55444100  0.24386200  1
  H  767  1  0.61690600  0.52190500  0.20923400  1
  H  768  1  0.62845400  0.58158300  0.22197500  1
  H  774  1  0.26269800  0.46110000  0.65262700  1
  H  776  1  0.39630400  0.47041600  0.71383000  1
  H  778  1  0.20845500  0.51777800  0.69784900  1
  H  779  1  0.21582800  0.53942800  0.63925600  1
  H  780  1  0.22144500  0.57763400  0.68856200  1
  H  782  1  0.41973100  0.55426400  0.75171900  1
  H  783  1  0.37846800  0.52178700  0.78636400  1
  H  784  1  0.36699100  0.58147600  0.77358200  1
  H  790  1  0.26284700  0.53434900  0.34273500  1
  H  792  1  0.39654600  0.52508200  0.28170800  1
  H  794  1  0.20859900  0.47760000  0.29756400  1
  H  795  1  0.21605800  0.45606700  0.35618600  1
  H  796  1  0.22162200  0.41776900  0.30696400  1
  H  798  1  0.41992700  0.44119600  0.24365000  1
  H  799  1  0.37875600  0.47388200  0.20909900  1
  H  800  1  0.36710900  0.41419000  0.22169800  1
  H  806  1  0.66238700  0.73144500  0.53701100  1
  H  808  1  0.72438300  0.59772600  0.52611000  1
  H  810  1  0.70603100  0.78857400  0.48187200  1
  H  811  1  0.64795700  0.77806800  0.46018300  1
  H  812  1  0.69726300  0.77620500  0.42199500  1
  H  814  1  0.76369700  0.57717200  0.44020800  1
  H  815  1  0.79820300  0.61528900  0.47647600  1
  H  816  1  0.78732000  0.63142500  0.41746300  1
  H  822  1  0.33298800  0.73137800  0.45849900  1
  H  824  1  0.27116100  0.59756300  0.46937800  1
  H  826  1  0.28936300  0.78845700  0.51369100  1
  H  827  1  0.34745600  0.77794000  0.53533300  1
  H  828  1  0.29818000  0.77606700  0.57355300  1
  H  830  1  0.23189400  0.57694800  0.55531900  1
  H  831  1  0.19733500  0.61496500  0.51899700  1
  H  832  1  0.20815800  0.63118000  0.57800000  1
  H  838  1  0.66240900  0.26418600  0.45848400  1
  H  840  1  0.72426900  0.39796400  0.46948900  1
  H  842  1  0.70580700  0.20704800  0.51391500  1
  H  843  1  0.64759800  0.21768300  0.53519500  1
  H  844  1  0.69662300  0.21950500  0.57372000  1
  H  846  1  0.76352700  0.41851900  0.55546900  1
  H  847  1  0.79800800  0.38041300  0.51916800  1
  H  848  1  0.78711700  0.36422600  0.57816000  1
  H  854  1  0.33308000  0.26403700  0.53702100  1
  H  856  1  0.27121600  0.39782600  0.52603800  1
  H  858  1  0.28995300  0.20693100  0.48123900  1
  H  859  1  0.34829900  0.21771600  0.46041400  1
  H  860  1  0.29958500  0.21951200  0.42151900  1
  H  862  1  0.23209500  0.41845900  0.43998000  1
  H  863  1  0.19759100  0.38032400  0.47622800  1
  H  864  1  0.20855800  0.36415500  0.41725000  1
  C  1  1  0.17425900  0.17476900  0.17557800  1
  C  2  1  0.18902300  0.17940500  0.12191600  1
  C  3  1  0.17687800  0.12226100  0.19600400  1
  C  4  1  0.15366900  0.08447300  0.16228600  1
  C  7  1  0.17286700  0.09170700  0.10998800  1
  C  8  1  0.16364900  0.14252000  0.08853700  1
  C  13  1  0.10880400  0.15130200  0.09109700  1
  C  14  1  0.08867200  0.14763700  0.14320000  1
  C  17  1  0.09893500  0.09576600  0.16053300  1
  C  20  1  0.11846000  0.18355900  0.17431900  1
  C  23  1  0.82120300  0.82073800  0.17546100  1
  C  24  1  0.80647800  0.81605300  0.12179300  1
  C  25  1  0.81854800  0.87326400  0.19583800  1
  C  26  1  0.84178700  0.91103300  0.16211400  1
  C  29  1  0.82262500  0.90374600  0.10981100  1
  C  30  1  0.83187400  0.85291900  0.08840800  1
  C  35  1  0.88672500  0.84416100  0.09102000  1
  C  36  1  0.90681400  0.84787200  0.14313700  1
  C  39  1  0.89652700  0.89975100  0.16041700  1
  C  42  1  0.87700700  0.81196600  0.17425600  1
  C  45  1  0.82122100  0.17477000  0.81997000  1
  C  46  1  0.80643900  0.17945900  0.87362300  1
  C  47  1  0.81859400  0.12224100  0.79958900  1
  C  48  1  0.84178300  0.08447600  0.83334900  1
  C  51  1  0.82255800  0.09176700  0.88562600  1
  C  52  1  0.83178500  0.14259400  0.90704100  1
  C  57  1  0.88663600  0.15134900  0.90450000  1
  C  58  1  0.90678900  0.14763400  0.85241100  1
  C  61  1  0.89652000  0.09575300  0.83511900  1
  C  64  1  0.87702100  0.18353900  0.82125000  1
  C  67  1  0.17434800  0.82069500  0.82004800  1
  C  68  1  0.18906800  0.81610600  0.87372300  1
  C  69  1  0.17699200  0.87320000  0.79961400  1
  C  70  1  0.15371500  0.91099700  0.83327400  1
  C  73  1  0.17284400  0.90380000  0.88560500  1
  C  74  1  0.16362500  0.85298600  0.90705900  1
  C  79  1  0.10878400  0.84418600  0.90443200  1
  C  80  1  0.08871500  0.84781500  0.85230100  1
  C  83  1  0.09898600  0.89967700  0.83495200  1
  C  86  1  0.11855000  0.81189100  0.82124200  1
  C  89  1  0.19803600  0.19949300  0.80160500  1
  C  90  1  0.21539300  0.20156900  0.85495600  1
  C  91  1  0.14255300  0.20971000  0.80579200  1
  C  92  1  0.11301600  0.17318200  0.83610000  1
  C  95  1  0.13643300  0.17258500  0.88696600  1
  C  96  1  0.19144100  0.16346600  0.88782300  1
  C  101  1  0.19852100  0.11417100  0.86211400  1
  C  102  1  0.17653900  0.10859400  0.81080700  1
  C  105  1  0.12242500  0.12130600  0.81785900  1
  C  108  1  0.19832000  0.14806400  0.77810700  1
  C  111  1  0.79749600  0.79596000  0.80145200  1
  C  112  1  0.78021800  0.79384500  0.85482800  1
  C  113  1  0.85298600  0.78575200  0.80555000  1
  C  114  1  0.88255500  0.82226300  0.83583700  1
  C  117  1  0.85922100  0.82285300  0.88674600  1
  C  118  1  0.80420600  0.83193400  0.88769100  1
  C  123  1  0.79709100  0.88124000  0.86200700  1
  C  124  1  0.81900700  0.88685200  0.81067900  1
  C  127  1  0.87313300  0.87414600  0.81762800  1
  C  130  1  0.79717200  0.84740600  0.77798600  1
  C  133  1  0.19804200  0.79600300  0.19403000  1
  C  134  1  0.21535700  0.79396300  0.14066200  1
  C  135  1  0.14255400  0.78579100  0.18988400  1
  C  136  1  0.11300000  0.82233400  0.15961800  1
  C  139  1  0.13637200  0.82297700  0.10873000  1
  C  140  1  0.19138000  0.83208300  0.10782500  1
  C  145  1  0.19848200  0.88136100  0.13356200  1
  C  146  1  0.17653500  0.88689900  0.18488600  1
  C  149  1  0.12241300  0.87419900  0.17789000  1
  C  152  1  0.19834300  0.84741700  0.21755500  1
  C  155  1  0.79745300  0.19954800  0.19398400  1
  C  156  1  0.78011100  0.20167500  0.14062900  1
  C  157  1  0.85294400  0.20972100  0.18981800  1
  C  158  1  0.88246300  0.17318200  0.15950400  1
  C  161  1  0.85905400  0.17263000  0.10862800  1
  C  162  1  0.80403900  0.16356700  0.10774900  1
  C  167  1  0.79690900  0.11426200  0.13342500  1
  C  168  1  0.81889000  0.10864300  0.18472800  1
  C  171  1  0.87301500  0.12129800  0.17770900  1
  C  174  1  0.79712300  0.14810400  0.21744800  1
  C  177  1  0.67522600  0.67472500  0.67569500  1
  C  178  1  0.69330700  0.68057500  0.62333900  1
  C  179  1  0.67857000  0.62082300  0.69063000  1
  C  180  1  0.65110200  0.58690000  0.65594000  1
  C  183  1  0.66935400  0.59614100  0.60375100  1
  C  184  1  0.66440600  0.64935000  0.58715900  1
  C  189  1  0.61001000  0.66191100  0.59091600  1
  C  190  1  0.58955500  0.65579000  0.64251800  1
  C  193  1  0.59732800  0.60231500  0.65660800  1
  C  196  1  0.62084400  0.68788600  0.67572000  1
  C  199  1  0.32017700  0.32077300  0.67574800  1
  C  200  1  0.30210700  0.31488200  0.62338900  1
  C  201  1  0.31679800  0.37468000  0.69066200  1
  C  202  1  0.34425700  0.40859900  0.65596100  1
  C  205  1  0.32601100  0.39931800  0.60378000  1
  C  206  1  0.33099900  0.34611300  0.58720600  1
  C  211  1  0.38540300  0.33358300  0.59098000  1
  C  212  1  0.40584400  0.33974200  0.64258200  1
  C  215  1  0.39803900  0.39321900  0.65663300  1
  C  218  1  0.37456600  0.30764600  0.67579100  1
  C  221  1  0.32026100  0.67468500  0.31977600  1
  C  222  1  0.30215000  0.68052500  0.37212400  1
  C  223  1  0.31693200  0.62078700  0.30482800  1
  C  224  1  0.34438600  0.58686400  0.33953200  1
  C  227  1  0.32610000  0.59609900  0.39171200  1
  C  228  1  0.33103800  0.64930000  0.40831800  1
  C  233  1  0.38543900  0.66187200  0.40459300  1
  C  234  1  0.40591500  0.65576200  0.35299700  1
  C  237  1  0.39815600  0.60228700  0.33890300  1
  C  240  1  0.37463700  0.68785800  0.31978500  1
  C  243  1  0.67533200  0.32088100  0.31980200  1
  C  244  1  0.69337800  0.31502500  0.37217400  1
  C  245  1  0.67872700  0.37477900  0.30486700  1
  C  246  1  0.65124800  0.40872000  0.33953400  1
  C  249  1  0.66946100  0.39947100  0.39173300  1
  C  250  1  0.66446300  0.34627000  0.40832900  1
  C  255  1  0.61006000  0.33373300  0.40453300  1
  C  256  1  0.58965400  0.33986200  0.35291300  1
  C  259  1  0.59747100  0.39333300  0.33883600  1
  C  262  1  0.62094700  0.30775200  0.31973800  1
  C  265  1  0.69685000  0.69970800  0.29955400  1
  C  266  1  0.71830800  0.70201100  0.35116200  1
  C  267  1  0.64304800  0.71561800  0.30314100  1
  C  268  1  0.61146400  0.68196800  0.33462700  1
  C  271  1  0.63505100  0.68527700  0.38533900  1
  C  272  1  0.68935800  0.67191000  0.38810400  1
  C  277  1  0.69159700  0.61935100  0.36848400  1
  C  278  1  0.67193400  0.61129300  0.31660200  1
  C  281  1  0.61888200  0.62832600  0.32056100  1
  C  284  1  0.69678600  0.64661000  0.28131600  1
  C  287  1  0.29874900  0.29589400  0.29945200  1
  C  288  1  0.27739200  0.29366500  0.35110500  1
  C  289  1  0.35255500  0.27997400  0.30293200  1
  C  290  1  0.38422300  0.31363200  0.33430200  1
  C  293  1  0.36077800  0.31043400  0.38507600  1
  C  294  1  0.30646500  0.32376500  0.38795500  1
  C  299  1  0.30422600  0.37631100  0.36829600  1
  C  300  1  0.32375600  0.38431200  0.31635300  1
  C  303  1  0.37680900  0.36724400  0.32013600  1
  C  306  1  0.29879100  0.34897600  0.28116200  1
  C  309  1  0.69680800  0.29591800  0.69601500  1
  C  310  1  0.71821600  0.29367600  0.64438100  1
  C  311  1  0.64300200  0.28000300  0.69247200  1
  C  312  1  0.61137900  0.31366800  0.66105400  1
  C  315  1  0.63490100  0.31043800  0.61031200  1
  C  316  1  0.68921200  0.32379700  0.60749700  1
  C  321  1  0.69145100  0.37633900  0.62716000  1
  C  322  1  0.67183800  0.38434400  0.67907200  1
  C  325  1  0.61879000  0.36729400  0.67518700  1
  C  328  1  0.69674700  0.34900200  0.71429500  1
  C  331  1  0.29862200  0.69959100  0.69595800  1
  C  332  1  0.27713600  0.70187600  0.64436000  1
  C  333  1  0.35242900  0.71548200  0.69234000  1
  C  334  1  0.38398100  0.68180100  0.66085900  1
  C  337  1  0.36037700  0.68510000  0.61016000  1
  C  338  1  0.30606000  0.67175300  0.60741200  1
  C  343  1  0.30379700  0.61920500  0.62706100  1
  C  344  1  0.32350400  0.61116200  0.67892900  1
  C  347  1  0.37656000  0.62815500  0.67492700  1
  C  350  1  0.29868300  0.64649900  0.71421400  1
  C  353  1  0.26834900  0.26494500  0.26695100  1
  C  354  1  0.22038100  0.27623200  0.25898900  1
  C  355  1  0.19051100  0.25167900  0.22688700  1
  C  356  1  0.20677600  0.20810300  0.20491900  1
  C  357  1  0.25685800  0.19709100  0.21110500  1
  C  359  1  0.28512600  0.22506200  0.24203300  1
  C  361  1  0.14613800  0.27893600  0.21558300  1
  C  365  1  0.28691000  0.15934500  0.18762700  1
  C  369  1  0.72719800  0.73062400  0.26697300  1
  C  370  1  0.77515300  0.71932100  0.25894700  1
  C  371  1  0.80497800  0.74383900  0.22678200  1
  C  372  1  0.78869200  0.78740500  0.20480900  1
  C  373  1  0.73861100  0.79839900  0.21101900  1
  C  375  1  0.71037500  0.77046100  0.24200900  1
  C  377  1  0.84931100  0.71654900  0.21541000  1
  C  381  1  0.70853400  0.83609600  0.18750100  1
  C  385  1  0.72718300  0.26496900  0.72854100  1
  C  386  1  0.77514600  0.27624800  0.73653100  1
  C  387  1  0.80501000  0.25167400  0.76862700  1
  C  388  1  0.78872700  0.20810400  0.79059700  1
  C  389  1  0.73864300  0.19711000  0.78439100  1
  C  391  1  0.71038900  0.22508600  0.75345000  1
  C  393  1  0.84940700  0.27890300  0.77990900  1
  C  397  1  0.70856900  0.15938000  0.80786700  1
  C  401  1  0.26830700  0.73052500  0.72855200  1
  C  402  1  0.22036200  0.71922200  0.73662700  1
  C  403  1  0.19058200  0.74372900  0.76884100  1
  C  404  1  0.20686500  0.78733000  0.79073900  1
  C  405  1  0.25693700  0.79833500  0.78447600  1
  C  407  1  0.28514800  0.77038000  0.75347500  1
  C  409  1  0.14633000  0.71637500  0.78037400  1
  C  413  1  0.28702800  0.83605000  0.80794200  1
  C  417  1  0.29009200  0.28988700  0.70851900  1
  C  418  1  0.30773700  0.25096900  0.73437700  1
  C  419  1  0.27973600  0.22215700  0.76468500  1
  C  420  1  0.22982100  0.23313300  0.77183000  1
  C  421  1  0.21289000  0.27621400  0.74940900  1
  C  423  1  0.24175300  0.29999000  0.71578500  1
  C  425  1  0.30970300  0.18329000  0.78621100  1
  C  429  1  0.16942400  0.30423700  0.76226900  1
  C  433  1  0.70533800  0.70560100  0.70844500  1
  C  434  1  0.68771600  0.74450700  0.73433500  1
  C  435  1  0.71574900  0.77330500  0.76462900  1
  C  436  1  0.76567700  0.76232900  0.77170900  1
  C  437  1  0.78258200  0.71925000  0.74926700  1
  C  439  1  0.75367800  0.69547800  0.71567400  1
  C  441  1  0.68580400  0.81215400  0.78621400  1
  C  445  1  0.82606600  0.69122700  0.76206200  1
  C  449  1  0.29016400  0.70557300  0.28701300  1
  C  450  1  0.30779400  0.74450400  0.26116600  1
  C  451  1  0.27977400  0.77332600  0.23088200  1
  C  452  1  0.22985600  0.76234700  0.22375500  1
  C  453  1  0.21294800  0.71923900  0.24614500  1
  C  455  1  0.24183200  0.69544300  0.27973500  1
  C  457  1  0.30972500  0.81220400  0.20935600  1
  C  461  1  0.16948300  0.69122000  0.23328100  1
  C  465  1  0.70542400  0.28996800  0.28706000  1
  C  466  1  0.68776900  0.25106200  0.26118900  1
  C  467  1  0.71576300  0.22224300  0.23088600  1
  C  468  1  0.76568800  0.23319500  0.22376400  1
  C  469  1  0.78263900  0.27625700  0.24621000  1
  C  471  1  0.75376600  0.30005300  0.27981400  1
  C  473  1  0.68577900  0.18340300  0.20933000  1
  C  477  1  0.82614800  0.30424000  0.23340500  1
  C  481  1  0.03577600  0.15913400  0.14786200  1
  C  482  1  0.01342500  0.15866000  0.19291400  1
  C  483  1  0.96572700  0.17274600  0.20048300  1
  C  484  1  0.93637900  0.18424000  0.16032300  1
  C  485  1  0.96138700  0.19530800  0.11745100  1
  C  487  1  0.00842500  0.17913100  0.11081600  1
  C  489  1  0.95228100  0.18354500  0.25089400  1
  C  493  1  0.94833900  0.23681500  0.08695500  1
  C  497  1  0.95971000  0.83637700  0.14785500  1
  C  498  1  0.98202400  0.83687100  0.19292500  1
  C  499  1  0.02970300  0.82274200  0.20053400  1
  C  500  1  0.05911000  0.81118700  0.16043300  1
  C  501  1  0.03409900  0.80011900  0.11756000  1
  C  503  1  0.98708200  0.81633000  0.11085300  1
  C  505  1  0.04309600  0.81186600  0.25094200  1
  C  509  1  0.04716100  0.75859700  0.08709700  1
  C  513  1  0.95969600  0.15909100  0.84777600  1
  C  514  1  0.98204200  0.15866700  0.80272100  1
  C  515  1  0.02972700  0.17279500  0.79514300  1
  C  516  1  0.05910700  0.18428100  0.83528200  1
  C  517  1  0.03409600  0.19529000  0.87817300  1
  C  519  1  0.98705300  0.17912000  0.88480200  1
  C  521  1  0.04315000  0.18364600  0.74473800  1
  C  525  1  0.04716800  0.23674400  0.90872600  1
  C  529  1  0.03582700  0.83631300  0.84758400  1
  C  530  1  0.01352200  0.83678600  0.80250400  1
  C  531  1  0.96583700  0.82268200  0.79488000  1
  C  532  1  0.93643600  0.81109500  0.83497700  1
  C  533  1  0.96146200  0.79992700  0.87781000  1
  C  535  1  0.00847600  0.81613800  0.88453500  1
  C  537  1  0.95242000  0.81187700  0.74446500  1
  C  541  1  0.94842100  0.75832300  0.90817200  1
  C  545  1  0.16484400  0.03460600  0.18036000  1
  C  546  1  0.21066700  0.01462000  0.17463300  1
  C  547  1  0.22133100  0.96738000  0.18786100  1
  C  548  1  0.18448000  0.93722800  0.20567100  1
  C  549  1  0.14588900  0.96240000  0.22699200  1
  C  551  1  0.13529900  0.00923300  0.21223800  1
  C  553  1  0.27255400  0.95423300  0.18762000  1
  C  557  1  0.12111400  0.94498000  0.27038300  1
  C  561  1  0.16488500  0.96086800  0.81520700  1
  C  562  1  0.21070300  0.98086900  0.82097200  1
  C  563  1  0.22135600  0.02814400  0.80785700  1
  C  564  1  0.18444900  0.05821100  0.79005700  1
  C  565  1  0.14582300  0.03314900  0.76870500  1
  C  567  1  0.13529600  0.98628200  0.78339200  1
  C  569  1  0.27257400  0.04130500  0.80808100  1
  C  573  1  0.12105600  0.05059800  0.72532100  1
  C  577  1  0.83062600  0.96092500  0.18011300  1
  C  578  1  0.78479600  0.98090800  0.17436200  1
  C  579  1  0.77410800  0.02814600  0.18758600  1
  C  580  1  0.81093100  0.05829400  0.20546200  1
  C  581  1  0.84947500  0.03310800  0.22685300  1
  C  583  1  0.86005300  0.98626100  0.21213300  1
  C  585  1  0.72288600  0.04128600  0.18733200  1
  C  589  1  0.87421700  0.05053200  0.27026100  1
  C  593  1  0.83064700  0.03457700  0.81533900  1
  C  594  1  0.78481700  0.01458600  0.82105100  1
  C  595  1  0.77414400  0.96733700  0.80785000  1
  C  596  1  0.81099900  0.93723900  0.79000700  1
  C  597  1  0.84959600  0.96237600  0.76865600  1
  C  599  1  0.86013100  0.00923500  0.78336700  1
  C  601  1  0.72292500  0.95417200  0.80813400  1
  C  605  1  0.87429500  0.94499500  0.72520400  1
  C  609  1  0.18096600  0.14962000  0.03767000  1
  C  610  1  0.17769300  0.19488800  0.01606800  1
  C  611  1  0.19443600  0.20459700  0.96982900  1
  C  612  1  0.20894500  0.16597300  0.93992600  1
  C  613  1  0.22280300  0.12369400  0.96459700  1
  C  615  1  0.20693900  0.11543100  0.01160300  1
  C  617  1  0.20014900  0.25581700  0.95703300  1
  C  621  1  0.26350600  0.09373300  0.94860600  1
  C  625  1  0.81443600  0.14975600  0.95789000  1
  C  626  1  0.81779500  0.19501500  0.97949000  1
  C  627  1  0.80110300  0.20473600  0.02575000  1
  C  628  1  0.78654100  0.16612500  0.05564600  1
  C  629  1  0.77260100  0.12387800  0.03097400  1
  C  631  1  0.78845300  0.11558400  0.98396800  1
  C  633  1  0.79548000  0.25596100  0.03856700  1
  C  637  1  0.73183600  0.09400000  0.04696000  1
  C  641  1  0.18088400  0.84590600  0.95795400  1
  C  642  1  0.17760700  0.80063400  0.97955400  1
  C  643  1  0.19430700  0.79091700  0.02580600  1
  C  644  1  0.20880300  0.82955300  0.05567900  1
  C  645  1  0.22262500  0.87188100  0.03107700  1
  C  647  1  0.20679600  0.88012000  0.98405000  1
  C  649  1  0.19997300  0.73969500  0.03861400  1
  C  653  1  0.26337000  0.90180200  0.04704300  1
  C  657  1  0.81458200  0.84575700  0.03753800  1
  C  658  1  0.81799000  0.80049200  0.01593800  1
  C  659  1  0.80137400  0.79074600  0.96965800  1
  C  660  1  0.78676500  0.82938600  0.93984100  1
  C  661  1  0.77281800  0.87167200  0.96441200  1
  C  663  1  0.78862800  0.87993600  0.01143600  1
  C  665  1  0.79576100  0.73952100  0.95684100  1
  C  669  1  0.73199600  0.90148200  0.94844200  1
  C  673  1  0.53749400  0.66987600  0.64860700  1
  C  674  1  0.51540400  0.66567500  0.69347400  1
  C  675  1  0.46737400  0.67747600  0.70245900  1
  C  676  1  0.43780900  0.69337800  0.66372000  1
  C  677  1  0.46305200  0.70908100  0.62231600  1
  C  679  1  0.51033900  0.69402500  0.61403700  1
  C  681  1  0.45444700  0.67159300  0.75384500  1
  C  685  1  0.44821900  0.75136000  0.59392700  1
  C  689  1  0.45790800  0.32567600  0.64870700  1
  C  690  1  0.47997400  0.32992400  0.69358000  1
  C  691  1  0.52796900  0.31801600  0.70261600  1
  C  692  1  0.55758300  0.30199600  0.66396200  1
  C  693  1  0.53230800  0.28630100  0.62257500  1
  C  695  1  0.48505700  0.30142300  0.61420400  1
  C  697  1  0.54085000  0.32380900  0.75401900  1
  C  701  1  0.54710500  0.24395000  0.59426400  1
  C  705  1  0.45798300  0.66984100  0.34693000  1
  C  706  1  0.48005900  0.66568900  0.30205000  1
  C  707  1  0.52805700  0.67758900  0.29303300  1
  C  708  1  0.55764400  0.69355900  0.33172500  1
  C  709  1  0.53237900  0.70920500  0.37314000  1
  C  711  1  0.48511000  0.69409200  0.38145100  1
  C  713  1  0.54096300  0.67175700  0.24163800  1
  C  717  1  0.54716900  0.75150900  0.40152200  1
  C  721  1  0.53759700  0.32579500  0.34675700  1
  C  722  1  0.51557400  0.33003300  0.30185600  1
  C  723  1  0.46762600  0.31802000  0.29274700  1
  C  724  1  0.43800000  0.30191100  0.33134900  1
  C  725  1  0.46327600  0.28615100  0.37271000  1
  C  727  1  0.51048800  0.30134500  0.38115600  1
  C  729  1  0.45477700  0.32376300  0.24133600  1
  C  733  1  0.44853200  0.24368400  0.40086800  1
  C  737  1  0.65990600  0.53546500  0.67091800  1
  C  738  1  0.70523200  0.51432300  0.66539800  1
  C  739  1  0.71503800  0.46656000  0.67765000  1
  C  740  1  0.67748600  0.43675600  0.69497000  1
  C  741  1  0.63811100  0.46214500  0.71467600  1
  C  743  1  0.62834700  0.50915200  0.69987200  1
  C  745  1  0.76638100  0.45334100  0.67574500  1
  C  749  1  0.61331900  0.44663000  0.75885300  1
  C  753  1  0.66006600  0.46015500  0.32457200  1
  C  754  1  0.70538100  0.48130700  0.33014700  1
  C  755  1  0.71517000  0.52909900  0.31800300  1
  C  756  1  0.67755400  0.55885200  0.30075600  1
  C  757  1  0.63821400  0.53352800  0.28092200  1
  C  759  1  0.62850400  0.48648200  0.29562800  1
  C  761  1  0.76650200  0.54235300  0.31993800  1
  C  765  1  0.61344400  0.54909200  0.23675100  1
  C  769  1  0.33546200  0.46004800  0.67087200  1
  C  770  1  0.29012800  0.48117900  0.66533800  1
  C  771  1  0.28031000  0.52895000  0.67754300  1
  C  772  1  0.31785100  0.55876400  0.69486400  1
  C  773  1  0.35717800  0.53338200  0.71466800  1
  C  775  1  0.36692700  0.48634700  0.69994600  1
  C  777  1  0.22896700  0.54216800  0.67565900  1
  C  781  1  0.38196200  0.54895700  0.75883100  1
  C  785  1  0.33562900  0.53542200  0.32457200  1
  C  786  1  0.29028800  0.51428100  0.33002700  1
  C  787  1  0.28048300  0.46651400  0.31779800  1
  C  788  1  0.31806400  0.43674200  0.30050200  1
  C  789  1  0.35743000  0.46211300  0.28076200  1
  C  791  1  0.36715100  0.50913800  0.29554100  1
  C  793  1  0.22915200  0.45326300  0.31977200  1
  C  797  1  0.38217600  0.44662300  0.23655100  1
  C  801  1  0.68250500  0.65927000  0.53714200  1
  C  802  1  0.67701700  0.70493700  0.51692900  1
  C  803  1  0.69020400  0.71582700  0.46972700  1
  C  804  1  0.70789000  0.67869100  0.43947200  1
  C  805  1  0.72733300  0.63889300  0.46433500  1
  C  807  1  0.71162600  0.62796700  0.51076900  1
  C  809  1  0.68507800  0.76714200  0.45718700  1
  C  813  1  0.77139600  0.61429700  0.44839300  1
  C  817  1  0.31289000  0.65920600  0.45832400  1
  C  818  1  0.31837300  0.70485100  0.47857400  1
  C  819  1  0.30519900  0.71569900  0.52579000  1
  C  820  1  0.28754800  0.67853100  0.55603000  1
  C  821  1  0.26815700  0.63871900  0.53115700  1
  C  823  1  0.28386900  0.62782100  0.48471900  1
  C  825  1  0.31033600  0.76701000  0.53835100  1
  C  829  1  0.22413200  0.61405200  0.54709500  1
  C  833  1  0.68250500  0.33636200  0.45837100  1
  C  834  1  0.67699900  0.29070000  0.47859100  1
  C  835  1  0.69001500  0.27984000  0.52585000  1
  C  836  1  0.70765200  0.31700700  0.55608000  1
  C  837  1  0.72711200  0.35684000  0.53129500  1
  C  839  1  0.71151200  0.36771700  0.48481100  1
  C  841  1  0.68471900  0.22854800  0.53842900  1
  C  845  1  0.77119700  0.38139000  0.54725100  1
  C  849  1  0.31292900  0.33619000  0.53717400  1
  C  850  1  0.31852000  0.29056200  0.51690700  1
  C  851  1  0.30570300  0.27977600  0.46957400  1
  C  852  1  0.28809200  0.31701700  0.43941200  1
  C  853  1  0.26851400  0.35679400  0.46417500  1
  C  855  1  0.28400900  0.36760300  0.51070100  1
  C  857  1  0.31118100  0.22851700  0.45692400  1
  C  861  1  0.22443300  0.38132600  0.44817700  1
