# generated using pymatgen
data_H24C53(N2O)4
_symmetry_space_group_name_H-M   'P 1'
_cell_length_a   42.30500000
_cell_length_b   42.30500000
_cell_length_c   76.61560000
_cell_angle_alpha   90.00000000
_cell_angle_beta   90.00000000
_cell_angle_gamma   90.00000000
_symmetry_Int_Tables_number   1
_chemical_formula_structural   H24C53(N2O)4
_chemical_formula_sum   'H384 C848 N128 O64'
_cell_volume   137119.93723819
_cell_formula_units_Z   16
loop_
 _symmetry_equiv_pos_site_id
 _symmetry_equiv_pos_as_xyz
  1  'x, y, z'
loop_
 _atom_site_type_symbol
 _atom_site_label
 _atom_site_symmetry_multiplicity
 _atom_site_fract_x
 _atom_site_fract_y
 _atom_site_fract_z
 _atom_site_occupancy
  H  25  1  0.17857200  0.24086300  0.09074700  1
  H  26  1  0.18847900  0.25471500  0.12055900  1
  H  27  1  0.18847900  0.26808700  0.15215100  1
  H  28  1  0.17857300  0.28190800  0.18197000  1
  H  29  1  0.07983000  0.27768800  0.17264000  1
  H  30  1  0.07982900  0.24499700  0.10008800  1
  H  31  1  0.09295000  0.32895600  0.13288800  1
  H  32  1  0.99435300  0.34657100  0.13369700  1
  H  33  1  0.98446800  0.29104800  0.13570900  1
  H  34  1  0.09295200  0.19375500  0.13987600  1
  H  35  1  0.98446300  0.23166100  0.13706500  1
  H  36  1  0.99434800  0.17614400  0.13914300  1
  H  42  1  0.10087400  0.23091700  0.07105100  1
  H  43  1  0.10088600  0.29200300  0.20171700  1
  H  44  1  0.07263600  0.13860700  0.14037700  1
  H  45  1  0.07264700  0.38404200  0.13220300  1
  H  70  1  0.34410600  0.28234000  0.59089900  1
  H  71  1  0.33425600  0.26821400  0.62067100  1
  H  72  1  0.33428000  0.25454900  0.65218300  1
  H  73  1  0.34417700  0.24051100  0.68196400  1
  H  74  1  0.44292900  0.24480300  0.67265700  1
  H  75  1  0.44287400  0.27792500  0.60013300  1
  H  76  1  0.42979300  0.19374700  0.63292000  1
  H  77  1  0.52839400  0.17612900  0.63366100  1
  H  78  1  0.53828200  0.23165100  0.63565700  1
  H  79  1  0.42981200  0.32895600  0.63986700  1
  H  80  1  0.53828200  0.29104800  0.63695300  1
  H  81  1  0.52840300  0.34657400  0.63899300  1
  H  87  1  0.42152900  0.29179100  0.57087200  1
  H  88  1  0.42175200  0.23054200  0.70182500  1
  H  89  1  0.45012600  0.38411100  0.64029500  1
  H  90  1  0.45010500  0.13867000  0.63181800  1
  H  115  1  0.78226200  0.67856000  0.34084300  1
  H  116  1  0.76814800  0.68842700  0.37061700  1
  H  117  1  0.75455600  0.68842000  0.40213400  1
  H  118  1  0.74048500  0.67853900  0.43191100  1
  H  119  1  0.74486700  0.57977500  0.42264400  1
  H  120  1  0.77791000  0.57979200  0.35010400  1
  H  121  1  0.69379000  0.59289200  0.38279400  1
  H  122  1  0.67616100  0.49428900  0.38349000  1
  H  123  1  0.73167500  0.48439700  0.38562100  1
  H  124  1  0.82895400  0.59288000  0.38996200  1
  H  125  1  0.79105100  0.48439200  0.38710900  1
  H  126  1  0.84656400  0.49427700  0.38925200  1
  H  132  1  0.79172700  0.60113500  0.32083300  1
  H  133  1  0.73121400  0.60109900  0.45188300  1
  H  134  1  0.88411500  0.57255400  0.39011500  1
  H  135  1  0.63860300  0.57256400  0.38273600  1
  H  160  1  0.74067100  0.84427100  0.84073500  1
  H  161  1  0.75463000  0.83435300  0.87052500  1
  H  162  1  0.76829900  0.83431300  0.90203900  1
  H  163  1  0.78242100  0.84414800  0.93181300  1
  H  164  1  0.77792500  0.94292200  0.92260200  1
  H  165  1  0.74491700  0.94301600  0.85006900  1
  H  166  1  0.82895900  0.92986600  0.88285200  1
  H  167  1  0.84658600  0.02846200  0.88368300  1
  H  168  1  0.79106700  0.03835000  0.88571200  1
  H  169  1  0.69376900  0.92986400  0.88988300  1
  H  170  1  0.73168000  0.03835900  0.88712800  1
  H  171  1  0.67616100  0.02847000  0.88923600  1
  H  177  1  0.73100800  0.92187900  0.82096500  1
  H  178  1  0.79164400  0.92157400  0.95182200  1
  H  179  1  0.63860500  0.95019000  0.89003100  1
  H  180  1  0.88404700  0.95016200  0.88217600  1
  H  205  1  0.67810000  0.74137800  0.59101400  1
  H  206  1  0.68749100  0.75480400  0.62084500  1
  H  207  1  0.68748100  0.76807500  0.65192800  1
  H  208  1  0.67807600  0.78151000  0.68175400  1
  H  209  1  0.57911800  0.77732900  0.67301100  1
  H  210  1  0.57913500  0.74545600  0.59975800  1
  H  211  1  0.59182400  0.82881900  0.63215700  1
  H  212  1  0.49319700  0.84639400  0.63175100  1
  H  213  1  0.48331200  0.79096800  0.63485300  1
  H  214  1  0.59181900  0.69393200  0.64060900  1
  H  215  1  0.48330900  0.73178600  0.63789400  1
  H  216  1  0.49319200  0.67636000  0.64099100  1
  H  222  1  0.60491900  0.74079700  0.56846800  1
  H  223  1  0.60496200  0.78190100  0.70432300  1
  H  224  1  0.57163500  0.63929800  0.64203400  1
  H  225  1  0.57163000  0.88351300  0.63066300  1
  H  250  1  0.84463100  0.78142800  0.09099700  1
  H  251  1  0.83523700  0.76804200  0.12083200  1
  H  252  1  0.83524200  0.75485200  0.15192600  1
  H  253  1  0.84465000  0.74149400  0.18176500  1
  H  254  1  0.94361000  0.74551700  0.17299900  1
  H  255  1  0.94359100  0.77720400  0.09972200  1
  H  256  1  0.93091600  0.69388500  0.13212500  1
  H  257  1  0.02954800  0.67632900  0.13174100  1
  H  258  1  0.03942800  0.73176000  0.13481700  1
  H  259  1  0.93090900  0.82877900  0.14059400  1
  H  260  1  0.03942500  0.79092300  0.13785200  1
  H  261  1  0.02953700  0.84635400  0.14093200  1
  H  267  1  0.91775000  0.78178500  0.06842100  1
  H  268  1  0.91774500  0.74103800  0.20432100  1
  H  269  1  0.95113800  0.88348400  0.14243300  1
  H  270  1  0.95112600  0.63926300  0.13041600  1
  H  295  1  0.28136400  0.17811600  0.84102200  1
  H  296  1  0.26796400  0.18752700  0.87085400  1
  H  297  1  0.25467200  0.18753600  0.90194200  1
  H  298  1  0.24129800  0.17814600  0.93177900  1
  H  299  1  0.24546000  0.07918600  0.92304500  1
  H  300  1  0.27719700  0.07916400  0.84977500  1
  H  301  1  0.19388300  0.09188300  0.88216300  1
  H  302  1  0.17629900  0.99325600  0.88173100  1
  H  303  1  0.23172000  0.98335700  0.88484400  1
  H  304  1  0.32877200  0.09185600  0.89060500  1
  H  305  1  0.29089000  0.98334700  0.88789400  1
  H  306  1  0.34633000  0.99322300  0.89093600  1
  H  312  1  0.28177300  0.10497900  0.81846400  1
  H  313  1  0.24074900  0.10490600  0.95432700  1
  H  314  1  0.38347200  0.07162300  0.89241400  1
  H  315  1  0.13919700  0.07169100  0.88064300  1
  H  340  1  0.24127600  0.34457600  0.34095000  1
  H  341  1  0.25467200  0.33517800  0.37078200  1
  H  342  1  0.26791900  0.33517600  0.40187900  1
  H  343  1  0.28135900  0.34458300  0.43170900  1
  H  344  1  0.27730300  0.44353900  0.42294500  1
  H  345  1  0.24551200  0.44353400  0.34968100  1
  H  346  1  0.32883600  0.43083600  0.38208200  1
  H  347  1  0.34642700  0.52946500  0.38176700  1
  H  348  1  0.29100600  0.53935200  0.38487200  1
  H  349  1  0.19394600  0.43085900  0.39054900  1
  H  350  1  0.23184400  0.53936700  0.38786900  1
  H  351  1  0.17640700  0.52949300  0.39092600  1
  H  357  1  0.24082000  0.41777600  0.31839300  1
  H  358  1  0.28181500  0.41770500  0.45426100  1
  H  359  1  0.13930000  0.45111500  0.39260800  1
  H  360  1  0.38352900  0.45102900  0.38064200  1
  H  367  1  0.95226800  0.93973500  0.14968500  1
  H  372  1  0.04454700  0.92922800  0.13028000  1
  H  377  1  0.97783500  0.09722300  0.15172600  1
  H  378  1  0.06920600  0.08008400  0.13247800  1
  H  389  1  0.57040500  0.58302800  0.64970000  1
  H  394  1  0.47820400  0.59352300  0.63018800  1
  H  399  1  0.54488100  0.42553100  0.65170300  1
  H  400  1  0.45356600  0.44263800  0.63236900  1
  H  411  1  0.08300700  0.45222100  0.39967700  1
  H  416  1  0.09347700  0.54452900  0.38030600  1
  H  421  1  0.92552200  0.47775700  0.40177300  1
  H  422  1  0.94262900  0.56915300  0.38255100  1
  H  433  1  0.43970900  0.07049500  0.89968500  1
  H  438  1  0.42922400  0.97821300  0.88028300  1
  H  443  1  0.59719700  0.04497400  0.90173300  1
  H  444  1  0.58008500  0.95358700  0.88249700  1
  H  455  1  0.57042900  0.93974200  0.62304200  1
  H  460  1  0.47819200  0.92923500  0.64250000  1
  H  465  1  0.54487400  0.09723600  0.62100600  1
  H  466  1  0.45354500  0.08011800  0.64031400  1
  H  477  1  0.95232000  0.58296900  0.12300900  1
  H  482  1  0.04455100  0.59346200  0.14248400  1
  H  487  1  0.97786600  0.42547500  0.12099200  1
  H  488  1  0.06918700  0.44260000  0.14031500  1
  H  499  1  0.43973800  0.45223300  0.37302100  1
  H  504  1  0.42923100  0.54446800  0.39248500  1
  H  509  1  0.59721300  0.47779500  0.37096500  1
  H  510  1  0.58009200  0.56915300  0.39023800  1
  H  521  1  0.08298800  0.07047000  0.87300100  1
  H  526  1  0.09347700  0.97829100  0.89255200  1
  H  531  1  0.92550300  0.04491900  0.87096100  1
  H  532  1  0.94260500  0.95363900  0.89034800  1
  H  543  1  0.16604000  0.34442700  0.31267000  1
  H  548  1  0.23330500  0.40017500  0.28650200  1
  H  553  1  0.11508400  0.29510200  0.23380800  1
  H  554  1  0.18482900  0.35333900  0.21150800  1
  H  565  1  0.35675500  0.17814800  0.81275400  1
  H  570  1  0.28931100  0.12256300  0.78662100  1
  H  575  1  0.40767100  0.22734200  0.73384600  1
  H  576  1  0.33771900  0.16926400  0.71161400  1
  H  587  1  0.67812800  0.66585300  0.56277500  1
  H  592  1  0.62260700  0.73334400  0.53663400  1
  H  597  1  0.72733700  0.61497500  0.48385300  1
  H  598  1  0.66932300  0.68501600  0.46165200  1
  H  609  1  0.84453400  0.85676600  0.06272400  1
  H  614  1  0.90025300  0.78940300  0.03659800  1
  H  619  1  0.79541900  0.90764500  0.98378600  1
  H  620  1  0.85357300  0.83770200  0.96160000  1
  H  631  1  0.35690100  0.34465000  0.45998200  1
  H  636  1  0.28928300  0.40007300  0.48608800  1
  H  641  1  0.40767800  0.29545200  0.53892700  1
  H  642  1  0.33752700  0.35337200  0.56109900  1
  H  653  1  0.16607900  0.17834300  0.96005800  1
  H  658  1  0.23327400  0.12251300  0.98622500  1
  H  663  1  0.11510000  0.22763300  0.03892200  1
  H  664  1  0.18479000  0.16932800  0.06122000  1
  H  675  1  0.84468000  0.66590700  0.20998200  1
  H  680  1  0.90011100  0.73346200  0.23613200  1
  H  685  1  0.79543800  0.61501200  0.28889300  1
  H  686  1  0.85337400  0.68510600  0.31110500  1
  H  697  1  0.67831000  0.85676600  0.70999900  1
  H  702  1  0.62241300  0.78959700  0.73615800  1
  H  707  1  0.72751200  0.90772700  0.78889200  1
  H  708  1  0.66917900  0.83801000  0.81114700  1
  H  737  1  0.17857200  0.64270700  0.18211200  1
  H  738  1  0.18847900  0.65655900  0.21192400  1
  H  739  1  0.18847900  0.66993100  0.24351600  1
  H  740  1  0.17857300  0.68375200  0.27333500  1
  H  741  1  0.07983000  0.67953200  0.26400500  1
  H  742  1  0.07982900  0.64684100  0.19145300  1
  H  743  1  0.09295000  0.73080000  0.22425300  1
  H  744  1  0.99435300  0.74841500  0.22506200  1
  H  745  1  0.98446800  0.69289200  0.22707400  1
  H  746  1  0.09295200  0.59559900  0.23124100  1
  H  747  1  0.98446300  0.63350500  0.22843000  1
  H  748  1  0.99434800  0.57798800  0.23050800  1
  H  754  1  0.10087400  0.63276100  0.16241600  1
  H  755  1  0.10088600  0.69384700  0.29308200  1
  H  756  1  0.07263600  0.54045100  0.23174200  1
  H  757  1  0.07264700  0.78588600  0.22356800  1
  H  782  1  0.34410600  0.68418400  0.68226400  1
  H  783  1  0.33425600  0.67005800  0.71203600  1
  H  784  1  0.33428000  0.65639300  0.74354800  1
  H  785  1  0.34417700  0.64235500  0.77332900  1
  H  786  1  0.44292900  0.64664700  0.76402200  1
  H  787  1  0.44287400  0.67976900  0.69149800  1
  H  788  1  0.42979300  0.59559100  0.72428500  1
  H  789  1  0.52839400  0.57797300  0.72502600  1
  H  790  1  0.53828200  0.63349500  0.72702200  1
  H  791  1  0.42981200  0.73080000  0.73123200  1
  H  792  1  0.53828200  0.69289200  0.72831800  1
  H  793  1  0.52840300  0.74841800  0.73035800  1
  H  799  1  0.42152900  0.69363500  0.66223700  1
  H  800  1  0.42175200  0.63238600  0.79319000  1
  H  801  1  0.45012600  0.78595500  0.73166000  1
  H  802  1  0.45010500  0.54051400  0.72318300  1
  H  827  1  0.78226200  0.08040380  0.43220800  1
  H  828  1  0.76814800  0.09027080  0.46198200  1
  H  829  1  0.75455600  0.09026380  0.49349900  1
  H  830  1  0.74048500  0.08038280  0.52327600  1
  H  831  1  0.74486700  0.98161900  0.51400900  1
  H  832  1  0.77791000  0.98163600  0.44146900  1
  H  833  1  0.69379000  0.99473600  0.47415900  1
  H  834  1  0.67616100  0.89613300  0.47485500  1
  H  835  1  0.73167500  0.88624100  0.47698600  1
  H  836  1  0.82895400  0.99472400  0.48132700  1
  H  837  1  0.79105100  0.88623600  0.47847400  1
  H  838  1  0.84656400  0.89612100  0.48061700  1
  H  844  1  0.79172700  0.00297875  0.41219800  1
  H  845  1  0.73121400  0.00294275  0.54324800  1
  H  846  1  0.88411500  0.97439800  0.48148000  1
  H  847  1  0.63860300  0.97440800  0.47410100  1
  H  872  1  0.74067100  0.24611500  0.93210000  1
  H  873  1  0.75463000  0.23619700  0.96189000  1
  H  874  1  0.76829900  0.23615700  0.99340400  1
  H  875  1  0.78242100  0.24599200  0.02317820  1
  H  876  1  0.77792500  0.34476600  0.01396720  1
  H  877  1  0.74491700  0.34486000  0.94143400  1
  H  878  1  0.82895900  0.33171000  0.97421700  1
  H  879  1  0.84658600  0.43030600  0.97504800  1
  H  880  1  0.79106700  0.44019400  0.97707700  1
  H  881  1  0.69376900  0.33170800  0.98124800  1
  H  882  1  0.73168000  0.44020300  0.97849300  1
  H  883  1  0.67616100  0.43031400  0.98060100  1
  H  889  1  0.73100800  0.32372300  0.91233000  1
  H  890  1  0.79164400  0.32341800  0.04318720  1
  H  891  1  0.63860500  0.35203400  0.98139600  1
  H  892  1  0.88404700  0.35200600  0.97354100  1
  H  917  1  0.67810000  0.14322200  0.68237900  1
  H  918  1  0.68749100  0.15664800  0.71221000  1
  H  919  1  0.68748100  0.16991900  0.74329300  1
  H  920  1  0.67807600  0.18335400  0.77311900  1
  H  921  1  0.57911800  0.17917300  0.76437600  1
  H  922  1  0.57913500  0.14730000  0.69112300  1
  H  923  1  0.59182400  0.23066300  0.72352200  1
  H  924  1  0.49319700  0.24823800  0.72311600  1
  H  925  1  0.48331200  0.19281200  0.72621800  1
  H  926  1  0.59181900  0.09577580  0.73197400  1
  H  927  1  0.48330900  0.13363000  0.72925900  1
  H  928  1  0.49319200  0.07820380  0.73235600  1
  H  934  1  0.60491900  0.14264100  0.65983300  1
  H  935  1  0.60496200  0.18374500  0.79568800  1
  H  936  1  0.57163500  0.04114180  0.73339900  1
  H  937  1  0.57163000  0.28535700  0.72202800  1
  H  962  1  0.84463100  0.18327200  0.18236200  1
  H  963  1  0.83523700  0.16988600  0.21219700  1
  H  964  1  0.83524200  0.15669600  0.24329100  1
  H  965  1  0.84465000  0.14333800  0.27313000  1
  H  966  1  0.94361000  0.14736100  0.26436400  1
  H  967  1  0.94359100  0.17904800  0.19108700  1
  H  968  1  0.93091600  0.09572880  0.22349000  1
  H  969  1  0.02954800  0.07817280  0.22310600  1
  H  970  1  0.03942800  0.13360400  0.22618200  1
  H  971  1  0.93090900  0.23062300  0.23195900  1
  H  972  1  0.03942500  0.19276700  0.22921700  1
  H  973  1  0.02953700  0.24819800  0.23229700  1
  H  979  1  0.91775000  0.18362900  0.15978600  1
  H  980  1  0.91774500  0.14288200  0.29568600  1
  H  981  1  0.95113800  0.28532800  0.23379800  1
  H  982  1  0.95112600  0.04110680  0.22178100  1
  H  1007  1  0.28136400  0.57996000  0.93238700  1
  H  1008  1  0.26796400  0.58937100  0.96221900  1
  H  1009  1  0.25467200  0.58938000  0.99330700  1
  H  1010  1  0.24129800  0.57999000  0.02314420  1
  H  1011  1  0.24546000  0.48103000  0.01441020  1
  H  1012  1  0.27719700  0.48100800  0.94114000  1
  H  1013  1  0.19388300  0.49372700  0.97352800  1
  H  1014  1  0.17629900  0.39510000  0.97309600  1
  H  1015  1  0.23172000  0.38520100  0.97620900  1
  H  1016  1  0.32877200  0.49370000  0.98197000  1
  H  1017  1  0.29089000  0.38519100  0.97925900  1
  H  1018  1  0.34633000  0.39506700  0.98230100  1
  H  1024  1  0.28177300  0.50682300  0.90982900  1
  H  1025  1  0.24074900  0.50675000  0.04569220  1
  H  1026  1  0.38347200  0.47346700  0.98377900  1
  H  1027  1  0.13919700  0.47353500  0.97200800  1
  H  1052  1  0.24127600  0.74642000  0.43231500  1
  H  1053  1  0.25467200  0.73702200  0.46214700  1
  H  1054  1  0.26791900  0.73702000  0.49324400  1
  H  1055  1  0.28135900  0.74642700  0.52307400  1
  H  1056  1  0.27730300  0.84538300  0.51431000  1
  H  1057  1  0.24551200  0.84537800  0.44104600  1
  H  1058  1  0.32883600  0.83268000  0.47344700  1
  H  1059  1  0.34642700  0.93130900  0.47313200  1
  H  1060  1  0.29100600  0.94119600  0.47623700  1
  H  1061  1  0.19394600  0.83270300  0.48191400  1
  H  1062  1  0.23184400  0.94121100  0.47923400  1
  H  1063  1  0.17640700  0.93133700  0.48229100  1
  H  1069  1  0.24082000  0.81962000  0.40975800  1
  H  1070  1  0.28181500  0.81954900  0.54562600  1
  H  1071  1  0.13930000  0.85295900  0.48397300  1
  H  1072  1  0.38352900  0.85287300  0.47200700  1
  H  1079  1  0.95226800  0.34157900  0.24105000  1
  H  1084  1  0.04454700  0.33107200  0.22164500  1
  H  1089  1  0.97783500  0.49906700  0.24309100  1
  H  1090  1  0.06920600  0.48192800  0.22384300  1
  H  1101  1  0.57040500  0.98487200  0.74106500  1
  H  1106  1  0.47820400  0.99536700  0.72155300  1
  H  1111  1  0.54488100  0.82737500  0.74306800  1
  H  1112  1  0.45356600  0.84448200  0.72373400  1
  H  1123  1  0.08300700  0.85406500  0.49104200  1
  H  1128  1  0.09347700  0.94637300  0.47167100  1
  H  1133  1  0.92552200  0.87960100  0.49313800  1
  H  1134  1  0.94262900  0.97099700  0.47391600  1
  H  1145  1  0.43970900  0.47233900  0.99105000  1
  H  1150  1  0.42922400  0.38005700  0.97164800  1
  H  1155  1  0.59719700  0.44681800  0.99309800  1
  H  1156  1  0.58008500  0.35543100  0.97386200  1
  H  1167  1  0.57042900  0.34158600  0.71440700  1
  H  1172  1  0.47819200  0.33107900  0.73386500  1
  H  1177  1  0.54487400  0.49908000  0.71237100  1
  H  1178  1  0.45354500  0.48196200  0.73167900  1
  H  1189  1  0.95232000  0.98481300  0.21437400  1
  H  1194  1  0.04455100  0.99530600  0.23384900  1
  H  1199  1  0.97786600  0.82731900  0.21235700  1
  H  1200  1  0.06918700  0.84444400  0.23168000  1
  H  1211  1  0.43973800  0.85407700  0.46438600  1
  H  1216  1  0.42923100  0.94631200  0.48385000  1
  H  1221  1  0.59721300  0.87963900  0.46233000  1
  H  1222  1  0.58009200  0.97099700  0.48160300  1
  H  1233  1  0.08298800  0.47231400  0.96436600  1
  H  1238  1  0.09347700  0.38013500  0.98391700  1
  H  1243  1  0.92550300  0.44676300  0.96232600  1
  H  1244  1  0.94260500  0.35548300  0.98171300  1
  H  1255  1  0.16604000  0.74627100  0.40403500  1
  H  1260  1  0.23330500  0.80201900  0.37786700  1
  H  1265  1  0.11508400  0.69694600  0.32517300  1
  H  1266  1  0.18482900  0.75518300  0.30287300  1
  H  1277  1  0.35675500  0.57999200  0.90411900  1
  H  1282  1  0.28931100  0.52440700  0.87798600  1
  H  1287  1  0.40767100  0.62918600  0.82521100  1
  H  1288  1  0.33771900  0.57110800  0.80297900  1
  H  1299  1  0.67812800  0.06769680  0.65414000  1
  H  1304  1  0.62260700  0.13518800  0.62799900  1
  H  1309  1  0.72733700  0.01681880  0.57521800  1
  H  1310  1  0.66932300  0.08685980  0.55301700  1
  H  1321  1  0.84453400  0.25861000  0.15408900  1
  H  1326  1  0.90025300  0.19124700  0.12796300  1
  H  1331  1  0.79541900  0.30948900  0.07515120  1
  H  1332  1  0.85357300  0.23954600  0.05296520  1
  H  1343  1  0.35690100  0.74649400  0.55134700  1
  H  1348  1  0.28928300  0.80191700  0.57745300  1
  H  1353  1  0.40767800  0.69729600  0.63029200  1
  H  1354  1  0.33752700  0.75521600  0.65246400  1
  H  1365  1  0.16607900  0.58018700  0.05142320  1
  H  1370  1  0.23327400  0.52435700  0.07759020  1
  H  1375  1  0.11510000  0.62947700  0.13028700  1
  H  1376  1  0.18479000  0.57117200  0.15258500  1
  H  1387  1  0.84468000  0.06775080  0.30134700  1
  H  1392  1  0.90011100  0.13530600  0.32749700  1
  H  1397  1  0.79543800  0.01685580  0.38025800  1
  H  1398  1  0.85337400  0.08694980  0.40247000  1
  H  1409  1  0.67831000  0.25861000  0.80136400  1
  H  1414  1  0.62241300  0.19144100  0.82752300  1
  H  1419  1  0.72751200  0.30957100  0.88025700  1
  H  1420  1  0.66917900  0.23985400  0.90251200  1
  C  1  1  0.06397500  0.23428100  0.13848500  1
  C  2  1  0.03274300  0.24499900  0.13743600  1
  C  3  1  0.03274100  0.27770200  0.13525400  1
  C  4  1  0.06397400  0.28842700  0.13423400  1
  C  5  1  0.06998900  0.32135700  0.13300300  1
  C  6  1  0.04469900  0.34366200  0.13275900  1
  C  7  1  0.01334800  0.33159700  0.13355400  1
  C  8  1  0.00723100  0.29895800  0.13469700  1
  C  9  1  0.00723100  0.22375200  0.13804600  1
  C  10  1  0.01334700  0.19111600  0.13923400  1
  C  11  1  0.04469900  0.17905600  0.14001900  1
  C  12  1  0.06999100  0.20135800  0.13975200  1
  C  13  1  0.10878500  0.25626100  0.12162600  1
  C  14  1  0.14005200  0.25809700  0.12749700  1
  C  15  1  0.14005000  0.26467300  0.14521900  1
  C  16  1  0.10878200  0.26644600  0.15109700  1
  C  17  1  0.16570000  0.26968200  0.15651800  1
  C  18  1  0.15961300  0.27797000  0.17394800  1
  C  19  1  0.12821300  0.28187000  0.18018400  1
  C  20  1  0.10275600  0.27516400  0.16861500  1
  C  21  1  0.10275400  0.24759500  0.10410200  1
  C  22  1  0.12821200  0.24087700  0.09253200  1
  C  23  1  0.15961000  0.24481000  0.09876600  1
  C  24  1  0.16569900  0.25312100  0.11619200  1
  C  37  1  0.08633400  0.26135400  0.13636000  1
  C  38  1  0.12298600  0.29162300  0.19733200  1
  C  39  1  0.12301800  0.23110400  0.07537500  1
  C  40  1  0.05044900  0.14630900  0.14013600  1
  C  41  1  0.05044700  0.37641700  0.13270700  1
  C  46  1  0.45877800  0.28841700  0.63855000  1
  C  47  1  0.49001100  0.27770200  0.63745400  1
  C  48  1  0.49000800  0.24499500  0.63527300  1
  C  49  1  0.45877300  0.23427400  0.63424700  1
  C  50  1  0.45275700  0.20134500  0.63301400  1
  C  51  1  0.47804300  0.17903200  0.63276000  1
  C  52  1  0.50939600  0.19109900  0.63353600  1
  C  53  1  0.51551600  0.22374000  0.63469000  1
  C  54  1  0.51552300  0.29895800  0.63799000  1
  C  55  1  0.50941000  0.33159900  0.63915200  1
  C  56  1  0.47806200  0.34366200  0.63995600  1
  C  57  1  0.45277400  0.32135400  0.63973800  1
  C  58  1  0.41396100  0.26648900  0.62166700  1
  C  59  1  0.38269900  0.26468000  0.62755600  1
  C  60  1  0.38271400  0.25803300  0.64526600  1
  C  61  1  0.41398400  0.25622700  0.65113800  1
  C  62  1  0.35705700  0.25298400  0.65655700  1
  C  63  1  0.36314100  0.24457200  0.67396600  1
  C  64  1  0.39454200  0.24064300  0.68019200  1
  C  65  1  0.42000700  0.24743200  0.66864500  1
  C  66  1  0.41996200  0.27526100  0.60415500  1
  C  67  1  0.39447300  0.28209900  0.59263400  1
  C  68  1  0.36308200  0.27823700  0.59888200  1
  C  69  1  0.35702600  0.26979100  0.61628900  1
  C  82  1  0.43642100  0.26134700  0.63639500  1
  C  83  1  0.39973800  0.23062500  0.69728100  1
  C  84  1  0.39961500  0.29226800  0.57557000  1
  C  85  1  0.47231500  0.37641200  0.64003800  1
  C  86  1  0.47226300  0.14627800  0.63275400  1
  C  91  1  0.78843200  0.56390300  0.38853200  1
  C  92  1  0.77771200  0.53267000  0.38748100  1
  C  93  1  0.74502100  0.53267200  0.38524300  1
  C  94  1  0.73430800  0.56391000  0.38420600  1
  C  95  1  0.70138800  0.56992800  0.38292100  1
  C  96  1  0.67908800  0.54464000  0.38264400  1
  C  97  1  0.69113800  0.51328500  0.38341700  1
  C  98  1  0.72376800  0.50716500  0.38463900  1
  C  99  1  0.79896200  0.50715800  0.38808400  1
  C  100  1  0.83159200  0.51327300  0.38932000  1
  C  101  1  0.84364700  0.54462600  0.39010700  1
  C  102  1  0.82135000  0.56991800  0.38982500  1
  C  103  1  0.76657800  0.60872000  0.37164900  1
  C  104  1  0.76467800  0.63998600  0.37751900  1
  C  105  1  0.75803100  0.63998100  0.39522500  1
  C  106  1  0.75618000  0.60871500  0.40109700  1
  C  107  1  0.75295400  0.66564200  0.40650500  1
  C  108  1  0.74454300  0.65957000  0.42391500  1
  C  109  1  0.74069000  0.62817200  0.43015700  1
  C  110  1  0.74746000  0.60269200  0.41861600  1
  C  111  1  0.77527000  0.60270900  0.35412500  1
  C  112  1  0.78206100  0.62819300  0.34259400  1
  C  113  1  0.77818900  0.65958900  0.34883500  1
  C  114  1  0.76976200  0.66565400  0.36624300  1
  C  127  1  0.76137300  0.58626400  0.38637100  1
  C  128  1  0.73055900  0.62304500  0.44723400  1
  C  129  1  0.79221100  0.62304900  0.32552900  1
  C  130  1  0.87639100  0.55037200  0.39029800  1
  C  131  1  0.64634700  0.55039100  0.38245100  1
  C  136  1  0.73429400  0.95884400  0.88848100  1
  C  137  1  0.74501400  0.99007700  0.88745000  1
  C  138  1  0.77771900  0.99007700  0.88527200  1
  C  139  1  0.78843400  0.95884200  0.88421600  1
  C  140  1  0.82136200  0.95283100  0.88297600  1
  C  141  1  0.84367100  0.97811600  0.88273700  1
  C  142  1  0.83161100  0.00946700  0.88353200  1
  C  143  1  0.79897200  0.01558800  0.88469200  1
  C  144  1  0.72376800  0.01559000  0.88808400  1
  C  145  1  0.69113300  0.00947200  0.88929000  1
  C  146  1  0.67907600  0.97811800  0.89004200  1
  C  147  1  0.70137300  0.95282400  0.88975500  1
  C  148  1  0.75624400  0.91405700  0.87159800  1
  C  149  1  0.75805900  0.88278200  0.87746100  1
  C  150  1  0.76466600  0.88275900  0.89517400  1
  C  151  1  0.76646000  0.91401700  0.90107000  1
  C  152  1  0.76982900  0.85708100  0.90643200  1
  C  153  1  0.77829100  0.86313000  0.92383700  1
  C  154  1  0.78212500  0.89451800  0.93009400  1
  C  155  1  0.77528000  0.92000900  0.91857700  1
  C  156  1  0.74750300  0.92009200  0.85408500  1
  C  157  1  0.74077500  0.89463400  0.84251900  1
  C  158  1  0.74470600  0.86323100  0.84874300  1
  C  159  1  0.75306200  0.85713500  0.86615800  1
  C  172  1  0.76135900  0.93648500  0.88634100  1
  C  173  1  0.79229900  0.89963600  0.94716600  1
  C  174  1  0.73080000  0.89979400  0.82540300  1
  C  175  1  0.64633000  0.97237200  0.89023400  1
  C  176  1  0.87642600  0.97236300  0.88268600  1
  C  181  1  0.56286300  0.73436000  0.63861700  1
  C  182  1  0.53161600  0.74504900  0.63756900  1
  C  183  1  0.53161800  0.77770700  0.63519600  1
  C  184  1  0.56286700  0.78839400  0.63415000  1
  C  185  1  0.56885900  0.82125000  0.63249200  1
  C  186  1  0.54355300  0.84352000  0.63182600  1
  C  187  1  0.51219700  0.83146700  0.63239600  1
  C  188  1  0.50609900  0.79890100  0.63412400  1
  C  189  1  0.50609600  0.72385300  0.63862100  1
  C  190  1  0.51219200  0.69128500  0.64035000  1
  C  191  1  0.54354600  0.67922700  0.64092600  1
  C  192  1  0.56885200  0.70150100  0.64027500  1
  C  193  1  0.60769900  0.75623500  0.62160300  1
  C  194  1  0.63892200  0.75810400  0.62754600  1
  C  195  1  0.63891700  0.76468700  0.64523200  1
  C  196  1  0.60768900  0.76650800  0.65117700  1
  C  197  1  0.66475600  0.76963500  0.65638600  1
  C  198  1  0.65894100  0.77769500  0.67384200  1
  C  199  1  0.62763300  0.78120800  0.68028500  1
  C  200  1  0.60194300  0.77481600  0.66881400  1
  C  201  1  0.60196000  0.74793300  0.60396300  1
  C  202  1  0.62765600  0.74160300  0.59248900  1
  C  203  1  0.65896000  0.74514400  0.59893200  1
  C  204  1  0.66476800  0.75320700  0.61638800  1
  C  217  1  0.58525200  0.76137600  0.63638800  1
  C  218  1  0.62290700  0.79066500  0.69750000  1
  C  219  1  0.62294800  0.73214800  0.57527200  1
  C  220  1  0.54932300  0.64659500  0.64240700  1
  C  221  1  0.54933900  0.87614200  0.63035400  1
  C  226  1  0.95986500  0.78835400  0.13856200  1
  C  227  1  0.99111500  0.77766500  0.13752800  1
  C  228  1  0.99111700  0.74500900  0.13515700  1
  C  229  1  0.95986800  0.73431000  0.13415400  1
  C  230  1  0.95388000  0.70146600  0.13244400  1
  C  231  1  0.97919400  0.67920100  0.13179200  1
  C  232  1  0.01054700  0.69125400  0.13237900  1
  C  233  1  0.01664000  0.72382200  0.13409300  1
  C  234  1  0.01663600  0.79885400  0.13859200  1
  C  235  1  0.01054000  0.83142200  0.14030400  1
  C  236  1  0.97918500  0.84346300  0.14090700  1
  C  237  1  0.95387100  0.82120100  0.14026100  1
  C  238  1  0.91503100  0.76644800  0.12157000  1
  C  239  1  0.88380600  0.76462800  0.12751800  1
  C  240  1  0.88380800  0.75810200  0.14520900  1
  C  241  1  0.91503600  0.75620100  0.15114400  1
  C  242  1  0.85796700  0.75325100  0.15637800  1
  C  243  1  0.86378400  0.74522900  0.17383900  1
  C  244  1  0.89509000  0.74169500  0.18027700  1
  C  245  1  0.92078200  0.74799000  0.16879500  1
  C  246  1  0.92076800  0.77470500  0.10392300  1
  C  247  1  0.89507400  0.78109700  0.09245800  1
  C  248  1  0.86376800  0.77761700  0.09890700  1
  C  249  1  0.85796000  0.76956900  0.11636600  1
  C  262  1  0.93747600  0.76133100  0.13635700  1
  C  263  1  0.89981100  0.73225900  0.19749500  1
  C  264  1  0.89979000  0.79053500  0.07523800  1
  C  265  1  0.97342900  0.87608300  0.14232900  1
  C  266  1  0.97345000  0.64656700  0.13034700  1
  C  271  1  0.28833700  0.06290400  0.88860700  1
  C  272  1  0.27763900  0.03165800  0.88758800  1
  C  273  1  0.24498100  0.03166600  0.88522600  1
  C  274  1  0.23429400  0.06291600  0.88421200  1
  C  275  1  0.20144900  0.06891600  0.88250900  1
  C  276  1  0.17917900  0.04361000  0.88182700  1
  C  277  1  0.19122600  0.01225200  0.88239800  1
  C  278  1  0.22378800  0.00614800  0.88413900  1
  C  279  1  0.29882800  0.00613400  0.88862500  1
  C  280  1  0.33140100  0.01222300  0.89032700  1
  C  281  1  0.34344600  0.04357700  0.89092300  1
  C  282  1  0.32118900  0.06889400  0.89029300  1
  C  283  1  0.26642500  0.10773700  0.87161700  1
  C  284  1  0.26459000  0.13896500  0.87755800  1
  C  285  1  0.25805000  0.13897000  0.89525000  1
  C  286  1  0.25623400  0.10774600  0.90120100  1
  C  287  1  0.25313600  0.16481300  0.90640700  1
  C  288  1  0.24509600  0.15900700  0.92386800  1
  C  289  1  0.24159600  0.12770400  0.93031900  1
  C  290  1  0.24794900  0.10201100  0.91884500  1
  C  291  1  0.27468100  0.10199000  0.85397000  1
  C  292  1  0.28106400  0.12767500  0.84249600  1
  C  293  1  0.27756100  0.15898300  0.84893700  1
  C  294  1  0.26948100  0.16480200  0.86639200  1
  C  307  1  0.26132100  0.08530300  0.88641000  1
  C  308  1  0.23216200  0.12298600  0.94754200  1
  C  309  1  0.29052400  0.12294200  0.82527900  1
  C  310  1  0.37607100  0.04933100  0.89232300  1
  C  311  1  0.14656400  0.04939900  0.88033400  1
  C  316  1  0.23438600  0.45980400  0.38854600  1
  C  317  1  0.24508700  0.49105100  0.38754000  1
  C  318  1  0.27773600  0.49104400  0.38515100  1
  C  319  1  0.28841500  0.45979700  0.38408400  1
  C  320  1  0.32126900  0.45380200  0.38242100  1
  C  321  1  0.34354100  0.47910900  0.38178700  1
  C  322  1  0.33149700  0.51046700  0.38238700  1
  C  323  1  0.29893400  0.51656500  0.38411800  1
  C  324  1  0.22390600  0.51658000  0.38860500  1
  C  325  1  0.19133500  0.51049300  0.39030400  1
  C  326  1  0.17928500  0.47914000  0.39089800  1
  C  327  1  0.20153500  0.45381900  0.39024200  1
  C  328  1  0.25623700  0.41496500  0.37153200  1
  C  329  1  0.25805700  0.38374200  0.37747900  1
  C  330  1  0.26464200  0.38374000  0.39516600  1
  C  331  1  0.26655500  0.41496800  0.40110000  1
  C  332  1  0.26952800  0.35790100  0.40633100  1
  C  333  1  0.27759800  0.36371600  0.42378700  1
  C  334  1  0.28113000  0.39502200  0.43022600  1
  C  335  1  0.27477800  0.42071400  0.41875000  1
  C  336  1  0.24794900  0.42070700  0.35388900  1
  C  337  1  0.24158600  0.39502000  0.34241300  1
  C  338  1  0.24506600  0.36371400  0.34886400  1
  C  339  1  0.25311400  0.35790100  0.36632400  1
  C  352  1  0.26139700  0.43740900  0.38631600  1
  C  353  1  0.29057300  0.39974700  0.44744300  1
  C  354  1  0.23216600  0.39974000  0.32518700  1
  C  355  1  0.14665200  0.47341700  0.39227800  1
  C  356  1  0.37615900  0.47332000  0.38032000  1
  C  361  1  0.99741900  0.92872500  0.13977600  1
  C  362  1  0.02614800  0.94283200  0.13457600  1
  C  364  1  0.00738700  0.99511900  0.14086700  1
  C  365  1  0.97776600  0.98247700  0.14628200  1
  C  366  1  0.97326800  0.94922800  0.14567700  1
  C  368  1  0.01292200  0.02821400  0.14140100  1
  C  369  1  0.04756000  0.07250800  0.13662900  1
  C  370  1  0.02451800  0.09432400  0.14237200  1
  C  371  1  0.99503400  0.08189000  0.14761900  1
  C  374  1  0.98873400  0.04897800  0.14730300  1
  C  375  1  0.95932200  0.03626300  0.15260700  1
  C  376  1  0.95392300  0.00339000  0.15213200  1
  C  383  1  0.52530000  0.59403600  0.63973200  1
  C  384  1  0.49659400  0.57992200  0.63449600  1
  C  386  1  0.51533900  0.52763300  0.64080700  1
  C  387  1  0.54493600  0.54027900  0.64625400  1
  C  388  1  0.54942900  0.57352800  0.64565700  1
  C  390  1  0.50980700  0.49453000  0.64133800  1
  C  391  1  0.47519700  0.45022100  0.63653900  1
  C  392  1  0.49823000  0.42840800  0.64229900  1
  C  393  1  0.52768900  0.44085800  0.64757600  1
  C  396  1  0.53398200  0.47377400  0.64726500  1
  C  397  1  0.56337300  0.48649600  0.65259700  1
  C  398  1  0.56876500  0.51937100  0.65212900  1
  C  405  1  0.09399800  0.49738100  0.38977300  1
  C  406  1  0.07988100  0.52611800  0.38459500  1
  C  408  1  0.02760700  0.50733500  0.39089100  1
  C  409  1  0.04025900  0.47771200  0.39629400  1
  C  410  1  0.07350600  0.47322100  0.39567700  1
  C  412  1  0.99451100  0.51286400  0.39143300  1
  C  413  1  0.95020900  0.54750000  0.38668900  1
  C  414  1  0.92840300  0.52445300  0.39243700  1
  C  415  1  0.94084600  0.49495800  0.39766200  1
  C  418  1  0.97375700  0.48866300  0.39733300  1
  C  419  1  0.98648200  0.45925100  0.40263000  1
  C  420  1  0.01935700  0.45386100  0.40214500  1
  C  427  1  0.42870800  0.02534500  0.88977200  1
  C  428  1  0.44282500  0.99661700  0.88457600  1
  C  430  1  0.49510500  0.01539600  0.89086300  1
  C  431  1  0.48245600  0.04501300  0.89627700  1
  C  432  1  0.44920700  0.04950200  0.89567000  1
  C  434  1  0.52820200  0.00986900  0.89139800  1
  C  435  1  0.57250400  0.97523500  0.88664200  1
  C  436  1  0.59431300  0.99828200  0.89238900  1
  C  437  1  0.58187000  0.02777200  0.89762200  1
  C  440  1  0.54895900  0.03406500  0.89730100  1
  C  441  1  0.53623700  0.06347300  0.90260400  1
  C  442  1  0.50336100  0.06886200  0.90212900  1
  C  449  1  0.52530700  0.92872700  0.63298200  1
  C  450  1  0.49658700  0.94283900  0.63819500  1
  C  452  1  0.51532900  0.99512800  0.63188500  1
  C  453  1  0.54494000  0.98248400  0.62645900  1
  C  454  1  0.54944100  0.94923800  0.62706400  1
  C  456  1  0.50979100  0.02822800  0.63134600  1
  C  457  1  0.47517100  0.07253300  0.63613600  1
  C  458  1  0.49820600  0.09434800  0.63038100  1
  C  459  1  0.52767500  0.08190400  0.62511400  1
  C  462  1  0.53397000  0.04899000  0.62542900  1
  C  463  1  0.56337600  0.03627100  0.62011500  1
  C  464  1  0.56877400  0.00339700  0.62059400  1
  C  471  1  0.99744500  0.59397200  0.13295600  1
  C  472  1  0.02615800  0.57986100  0.13817800  1
  C  474  1  0.00740600  0.52757800  0.13187100  1
  C  475  1  0.97780200  0.54022200  0.12643500  1
  C  476  1  0.97330600  0.57346900  0.12703800  1
  C  478  1  0.01293900  0.49448100  0.13134000  1
  C  479  1  0.04755500  0.45018100  0.13614300  1
  C  480  1  0.02452100  0.42836800  0.13038800  1
  C  481  1  0.99505700  0.44080600  0.12511100  1
  C  484  1  0.98876000  0.47371900  0.12542000  1
  C  485  1  0.95936400  0.48643900  0.12009400  1
  C  486  1  0.95396800  0.51931200  0.12056600  1
  C  493  1  0.42872900  0.49734500  0.38297800  1
  C  494  1  0.44283700  0.52607000  0.38818900  1
  C  496  1  0.49512100  0.50732300  0.38187900  1
  C  497  1  0.48248000  0.47771200  0.37645000  1
  C  498  1  0.44923300  0.47321600  0.37705300  1
  C  500  1  0.52821700  0.51286100  0.38133800  1
  C  501  1  0.57251400  0.54750300  0.38609300  1
  C  502  1  0.59432200  0.52447200  0.38032900  1
  C  503  1  0.58188400  0.49498400  0.37509100  1
  C  506  1  0.54897500  0.48868000  0.37542100  1
  C  507  1  0.53625800  0.45927400  0.37010600  1
  C  508  1  0.50338700  0.45387800  0.37058300  1
  C  515  1  0.09399000  0.02537800  0.88299400  1
  C  516  1  0.07987600  0.99667400  0.88823100  1
  C  518  1  0.02759400  0.01540400  0.88189500  1
  C  519  1  0.04024200  0.04499800  0.87644200  1
  C  520  1  0.07348800  0.04949700  0.87705000  1
  C  522  1  0.99449700  0.00986600  0.88135500  1
  C  523  1  0.95019300  0.97525600  0.88615800  1
  C  524  1  0.92838700  0.99827200  0.88036900  1
  C  525  1  0.94083000  0.02773300  0.87509200  1
  C  528  1  0.97374300  0.03403000  0.87541100  1
  C  529  1  0.98646500  0.06341900  0.87007400  1
  C  530  1  0.01933700  0.06881700  0.87055300  1
  C  537  1  0.20085600  0.37468600  0.30230800  1
  C  538  1  0.21410700  0.38554300  0.28651500  1
  C  540  1  0.17781900  0.35457300  0.26961600  1
  C  541  1  0.16329100  0.34297600  0.28507100  1
  C  542  1  0.17538700  0.35322800  0.30133000  1
  C  544  1  0.16727300  0.34399700  0.25310500  1
  C  545  1  0.17275400  0.34470900  0.22204400  1
  C  546  1  0.14806200  0.32269200  0.21986700  1
  C  547  1  0.13279500  0.31139600  0.23504500  1
  C  550  1  0.14206100  0.32185800  0.25184400  1
  C  551  1  0.12745300  0.31078400  0.26728000  1
  C  552  1  0.13799800  0.32122000  0.28374900  1
  C  559  1  0.32185800  0.14796300  0.80240900  1
  C  560  1  0.30855900  0.13713000  0.78662200  1
  C  562  1  0.34487400  0.16803400  0.76970800  1
  C  563  1  0.35945900  0.17959900  0.78515400  1
  C  564  1  0.34737700  0.16936000  0.80141900  1
  C  566  1  0.35541000  0.17858100  0.75319200  1
  C  567  1  0.34985000  0.17786400  0.72213800  1
  C  568  1  0.37462000  0.19978500  0.71994000  1
  C  569  1  0.38992300  0.21109100  0.73510300  1
  C  572  1  0.38067400  0.20065900  0.75191000  1
  C  573  1  0.39533200  0.21170900  0.76733700  1
  C  574  1  0.38479600  0.20130000  0.78381500  1
  C  581  1  0.64798700  0.70078000  0.55242700  1
  C  582  1  0.63712100  0.71405500  0.53664000  1
  C  584  1  0.66801600  0.67773300  0.51973100  1
  C  585  1  0.67956500  0.66313000  0.53517400  1
  C  586  1  0.66933900  0.67522500  0.55143900  1
  C  588  1  0.67857000  0.66721000  0.50321500  1
  C  589  1  0.67789600  0.67285000  0.47217000  1
  C  590  1  0.69981300  0.64808200  0.46996600  1
  C  591  1  0.71107900  0.63271200  0.48511800  1
  C  594  1  0.70063400  0.64193600  0.50192800  1
  C  595  1  0.71166100  0.62725000  0.51735300  1
  C  596  1  0.70124800  0.63777800  0.53383100  1
  C  603  1  0.87470800  0.82185800  0.05238000  1
  C  604  1  0.88564000  0.80861800  0.03660000  1
  C  606  1  0.85476000  0.84494000  0.01968100  1
  C  607  1  0.84315300  0.85950800  0.03512300  1
  C  608  1  0.85335800  0.84741500  0.05139100  1
  C  610  1  0.84422900  0.85546600  0.00316200  1
  C  611  1  0.84497600  0.84985900  0.97211600  1
  C  612  1  0.82301900  0.87459200  0.96990300  1
  C  613  1  0.81170600  0.88993300  0.98505300  1
  C  616  1  0.82213000  0.88071200  0.00186700  1
  C  617  1  0.81105100  0.89536500  0.01729000  1
  C  618  1  0.82143700  0.88483400  0.03377300  1
  C  625  1  0.32191200  0.37474800  0.47031200  1
  C  626  1  0.30854500  0.38552700  0.48609200  1
  C  628  1  0.34489300  0.35469600  0.50302000  1
  C  629  1  0.35954100  0.34317500  0.48758400  1
  C  630  1  0.34747000  0.35339600  0.47131300  1
  C  632  1  0.35540200  0.34415100  0.51954200  1
  C  633  1  0.34971000  0.34480600  0.55058500  1
  C  634  1  0.37449900  0.32291200  0.55280000  1
  C  635  1  0.38992100  0.31168900  0.53765600  1
  C  638  1  0.38070700  0.32212000  0.52084200  1
  C  639  1  0.39543300  0.31112200  0.50542200  1
  C  640  1  0.38491900  0.32152500  0.48893800  1
  C  647  1  0.20085000  0.14803600  0.97042000  1
  C  648  1  0.21406800  0.13713600  0.98621300  1
  C  650  1  0.17779900  0.16812900  0.00311200  1
  C  651  1  0.16329500  0.17975700  0.98765600  1
  C  652  1  0.17539200  0.16950600  0.97139700  1
  C  654  1  0.16725200  0.17870100  0.01962300  1
  C  655  1  0.17272000  0.17796800  0.05068400  1
  C  656  1  0.14802900  0.19998700  0.05286300  1
  C  657  1  0.13280100  0.21132900  0.03768300  1
  C  660  1  0.14205900  0.20086300  0.02088500  1
  C  661  1  0.12747500  0.21196700  0.00544700  1
  C  662  1  0.13802200  0.20153600  0.98897800  1
  C  669  1  0.87477400  0.70087000  0.22033500  1
  C  670  1  0.88560700  0.71416600  0.23612300  1
  C  672  1  0.85472200  0.67782500  0.25302700  1
  C  673  1  0.84320500  0.66320500  0.23758100  1
  C  674  1  0.85344300  0.67529600  0.22131900  1
  C  676  1  0.84416500  0.66729700  0.26954100  1
  C  677  1  0.84481700  0.67293500  0.30058500  1
  C  678  1  0.82292400  0.64814300  0.30278600  1
  C  679  1  0.81168000  0.63276700  0.28763200  1
  C  682  1  0.82212300  0.64200000  0.27082400  1
  C  683  1  0.81112400  0.62730200  0.25539700  1
  C  684  1  0.82154400  0.63783200  0.23892000  1
  C  691  1  0.64804900  0.82195500  0.72036100  1
  C  692  1  0.63708100  0.80877000  0.73614800  1
  C  694  1  0.66805100  0.84504400  0.75304900  1
  C  695  1  0.67969700  0.85955300  0.73759900  1
  C  696  1  0.66946200  0.84745500  0.72133800  1
  C  698  1  0.67860300  0.85558900  0.76956300  1
  C  699  1  0.67782100  0.85010100  0.80061900  1
  C  700  1  0.69983900  0.87478300  0.80280900  1
  C  701  1  0.71119700  0.89003700  0.78764100  1
  C  704  1  0.70075900  0.88078500  0.77083700  1
  C  705  1  0.71188300  0.89537200  0.75540500  1
  C  706  1  0.70147500  0.88482500  0.73893100  1
  C  713  1  0.06397500  0.63612500  0.22985000  1
  C  714  1  0.03274300  0.64684300  0.22880100  1
  C  715  1  0.03274100  0.67954600  0.22661900  1
  C  716  1  0.06397400  0.69027100  0.22559900  1
  C  717  1  0.06998900  0.72320100  0.22436800  1
  C  718  1  0.04469900  0.74550600  0.22412400  1
  C  719  1  0.01334800  0.73344100  0.22491900  1
  C  720  1  0.00723100  0.70080200  0.22606200  1
  C  721  1  0.00723100  0.62559600  0.22941100  1
  C  722  1  0.01334700  0.59296000  0.23059900  1
  C  723  1  0.04469900  0.58090000  0.23138400  1
  C  724  1  0.06999100  0.60320200  0.23111700  1
  C  725  1  0.10878500  0.65810500  0.21299100  1
  C  726  1  0.14005200  0.65994100  0.21886200  1
  C  727  1  0.14005000  0.66651700  0.23658400  1
  C  728  1  0.10878200  0.66829000  0.24246200  1
  C  729  1  0.16570000  0.67152600  0.24788300  1
  C  730  1  0.15961300  0.67981400  0.26531300  1
  C  731  1  0.12821300  0.68371400  0.27154900  1
  C  732  1  0.10275600  0.67700800  0.25998000  1
  C  733  1  0.10275400  0.64943900  0.19546700  1
  C  734  1  0.12821200  0.64272100  0.18389700  1
  C  735  1  0.15961000  0.64665400  0.19013100  1
  C  736  1  0.16569900  0.65496500  0.20755700  1
  C  749  1  0.08633400  0.66319800  0.22772500  1
  C  750  1  0.12298600  0.69346700  0.28869700  1
  C  751  1  0.12301800  0.63294800  0.16674000  1
  C  752  1  0.05044900  0.54815300  0.23150100  1
  C  753  1  0.05044700  0.77826100  0.22407200  1
  C  758  1  0.45877800  0.69026100  0.72991500  1
  C  759  1  0.49001100  0.67954600  0.72881900  1
  C  760  1  0.49000800  0.64683900  0.72663800  1
  C  761  1  0.45877300  0.63611800  0.72561200  1
  C  762  1  0.45275700  0.60318900  0.72437900  1
  C  763  1  0.47804300  0.58087600  0.72412500  1
  C  764  1  0.50939600  0.59294300  0.72490100  1
  C  765  1  0.51551600  0.62558400  0.72605500  1
  C  766  1  0.51552300  0.70080200  0.72935500  1
  C  767  1  0.50941000  0.73344300  0.73051700  1
  C  768  1  0.47806200  0.74550600  0.73132100  1
  C  769  1  0.45277400  0.72319800  0.73110300  1
  C  770  1  0.41396100  0.66833300  0.71303200  1
  C  771  1  0.38269900  0.66652400  0.71892100  1
  C  772  1  0.38271400  0.65987700  0.73663100  1
  C  773  1  0.41398400  0.65807100  0.74250300  1
  C  774  1  0.35705700  0.65482800  0.74792200  1
  C  775  1  0.36314100  0.64641600  0.76533100  1
  C  776  1  0.39454200  0.64248700  0.77155700  1
  C  777  1  0.42000700  0.64927600  0.76001000  1
  C  778  1  0.41996200  0.67710500  0.69552000  1
  C  779  1  0.39447300  0.68394300  0.68399900  1
  C  780  1  0.36308200  0.68008100  0.69024700  1
  C  781  1  0.35702600  0.67163500  0.70765400  1
  C  794  1  0.43642100  0.66319100  0.72776000  1
  C  795  1  0.39973800  0.63246900  0.78864600  1
  C  796  1  0.39961500  0.69411200  0.66693500  1
  C  797  1  0.47231500  0.77825600  0.73140300  1
  C  798  1  0.47226300  0.54812200  0.72411900  1
  C  803  1  0.78843200  0.96574700  0.47989700  1
  C  804  1  0.77771200  0.93451400  0.47884600  1
  C  805  1  0.74502100  0.93451600  0.47660800  1
  C  806  1  0.73430800  0.96575400  0.47557100  1
  C  807  1  0.70138800  0.97177200  0.47428600  1
  C  808  1  0.67908800  0.94648400  0.47400900  1
  C  809  1  0.69113800  0.91512900  0.47478200  1
  C  810  1  0.72376800  0.90900900  0.47600400  1
  C  811  1  0.79896200  0.90900200  0.47944900  1
  C  812  1  0.83159200  0.91511700  0.48068500  1
  C  813  1  0.84364700  0.94647000  0.48147200  1
  C  814  1  0.82135000  0.97176200  0.48119000  1
  C  815  1  0.76657800  0.01056380  0.46301400  1
  C  816  1  0.76467800  0.04182980  0.46888400  1
  C  817  1  0.75803100  0.04182480  0.48659000  1
  C  818  1  0.75618000  0.01055880  0.49246200  1
  C  819  1  0.75295400  0.06748580  0.49787000  1
  C  820  1  0.74454300  0.06141380  0.51528000  1
  C  821  1  0.74069000  0.03001580  0.52152200  1
  C  822  1  0.74746000  0.00453575  0.50998100  1
  C  823  1  0.77527000  0.00455275  0.44549000  1
  C  824  1  0.78206100  0.03003680  0.43395900  1
  C  825  1  0.77818900  0.06143280  0.44020000  1
  C  826  1  0.76976200  0.06749780  0.45760800  1
  C  839  1  0.76137300  0.98810800  0.47773600  1
  C  840  1  0.73055900  0.02488880  0.53859900  1
  C  841  1  0.79221100  0.02489280  0.41689400  1
  C  842  1  0.87639100  0.95221600  0.48166300  1
  C  843  1  0.64634700  0.95223500  0.47381600  1
  C  848  1  0.73429400  0.36068800  0.97984600  1
  C  849  1  0.74501400  0.39192100  0.97881500  1
  C  850  1  0.77771900  0.39192100  0.97663700  1
  C  851  1  0.78843400  0.36068600  0.97558100  1
  C  852  1  0.82136200  0.35467500  0.97434100  1
  C  853  1  0.84367100  0.37996000  0.97410200  1
  C  854  1  0.83161100  0.41131100  0.97489700  1
  C  855  1  0.79897200  0.41743200  0.97605700  1
  C  856  1  0.72376800  0.41743400  0.97944900  1
  C  857  1  0.69113300  0.41131600  0.98065500  1
  C  858  1  0.67907600  0.37996200  0.98140700  1
  C  859  1  0.70137300  0.35466800  0.98112000  1
  C  860  1  0.75624400  0.31590100  0.96296300  1
  C  861  1  0.75805900  0.28462600  0.96882600  1
  C  862  1  0.76466600  0.28460300  0.98653900  1
  C  863  1  0.76646000  0.31586100  0.99243500  1
  C  864  1  0.76982900  0.25892500  0.99779700  1
  C  865  1  0.77829100  0.26497400  0.01520220  1
  C  866  1  0.78212500  0.29636200  0.02145920  1
  C  867  1  0.77528000  0.32185300  0.00994220  1
  C  868  1  0.74750300  0.32193600  0.94545000  1
  C  869  1  0.74077500  0.29647800  0.93388400  1
  C  870  1  0.74470600  0.26507500  0.94010800  1
  C  871  1  0.75306200  0.25897900  0.95752300  1
  C  884  1  0.76135900  0.33832900  0.97770600  1
  C  885  1  0.79229900  0.30148000  0.03853120  1
  C  886  1  0.73080000  0.30163800  0.91676800  1
  C  887  1  0.64633000  0.37421600  0.98159900  1
  C  888  1  0.87642600  0.37420700  0.97405100  1
  C  893  1  0.56286300  0.13620400  0.72998200  1
  C  894  1  0.53161600  0.14689300  0.72893400  1
  C  895  1  0.53161800  0.17955100  0.72656100  1
  C  896  1  0.56286700  0.19023800  0.72551500  1
  C  897  1  0.56885900  0.22309400  0.72385700  1
  C  898  1  0.54355300  0.24536400  0.72319100  1
  C  899  1  0.51219700  0.23331100  0.72376100  1
  C  900  1  0.50609900  0.20074500  0.72548900  1
  C  901  1  0.50609600  0.12569700  0.72998600  1
  C  902  1  0.51219200  0.09312880  0.73171500  1
  C  903  1  0.54354600  0.08107080  0.73229100  1
  C  904  1  0.56885200  0.10334500  0.73164000  1
  C  905  1  0.60769900  0.15807900  0.71296800  1
  C  906  1  0.63892200  0.15994800  0.71891100  1
  C  907  1  0.63891700  0.16653100  0.73659700  1
  C  908  1  0.60768900  0.16835200  0.74254200  1
  C  909  1  0.66475600  0.17147900  0.74775100  1
  C  910  1  0.65894100  0.17953900  0.76520700  1
  C  911  1  0.62763300  0.18305200  0.77165000  1
  C  912  1  0.60194300  0.17666000  0.76017900  1
  C  913  1  0.60196000  0.14977700  0.69532800  1
  C  914  1  0.62765600  0.14344700  0.68385400  1
  C  915  1  0.65896000  0.14698800  0.69029700  1
  C  916  1  0.66476800  0.15505100  0.70775300  1
  C  929  1  0.58525200  0.16322000  0.72775300  1
  C  930  1  0.62290700  0.19250900  0.78886500  1
  C  931  1  0.62294800  0.13399200  0.66666667  1
  C  932  1  0.54932300  0.04843880  0.73377200  1
  C  933  1  0.54933900  0.27798600  0.72171900  1
  C  938  1  0.95986500  0.19019800  0.22992700  1
  C  939  1  0.99111500  0.17950900  0.22889300  1
  C  940  1  0.99111700  0.14685300  0.22652200  1
  C  941  1  0.95986800  0.13615400  0.22551900  1
  C  942  1  0.95388000  0.10331000  0.22380900  1
  C  943  1  0.97919400  0.08104480  0.22315700  1
  C  944  1  0.01054700  0.09309780  0.22374400  1
  C  945  1  0.01664000  0.12566600  0.22545800  1
  C  946  1  0.01663600  0.20069800  0.22995700  1
  C  947  1  0.01054000  0.23326600  0.23166900  1
  C  948  1  0.97918500  0.24530700  0.23227200  1
  C  949  1  0.95387100  0.22304500  0.23162600  1
  C  950  1  0.91503100  0.16829200  0.21293500  1
  C  951  1  0.88380600  0.16647200  0.21888300  1
  C  952  1  0.88380800  0.15994600  0.23657400  1
  C  953  1  0.91503600  0.15804500  0.24250900  1
  C  954  1  0.85796700  0.15509500  0.24774300  1
  C  955  1  0.86378400  0.14707300  0.26520400  1
  C  956  1  0.89509000  0.14353900  0.27164200  1
  C  957  1  0.92078200  0.14983400  0.26016000  1
  C  958  1  0.92076800  0.17654900  0.19528800  1
  C  959  1  0.89507400  0.18294100  0.18382300  1
  C  960  1  0.86376800  0.17946100  0.19027200  1
  C  961  1  0.85796000  0.17141300  0.20773100  1
  C  974  1  0.93747600  0.16317500  0.22772200  1
  C  975  1  0.89981100  0.13410300  0.28886000  1
  C  976  1  0.89979000  0.19237900  0.16660300  1
  C  977  1  0.97342900  0.27792700  0.23369400  1
  C  978  1  0.97345000  0.04841080  0.22171200  1
  C  983  1  0.28833700  0.46474800  0.97997200  1
  C  984  1  0.27763900  0.43350200  0.97895300  1
  C  985  1  0.24498100  0.43351000  0.97659100  1
  C  986  1  0.23429400  0.46476000  0.97557700  1
  C  987  1  0.20144900  0.47076000  0.97387400  1
  C  988  1  0.17917900  0.44545400  0.97319200  1
  C  989  1  0.19122600  0.41409600  0.97376300  1
  C  990  1  0.22378800  0.40799200  0.97550400  1
  C  991  1  0.29882800  0.40797800  0.97999000  1
  C  992  1  0.33140100  0.41406700  0.98169200  1
  C  993  1  0.34344600  0.44542100  0.98228800  1
  C  994  1  0.32118900  0.47073800  0.98165800  1
  C  995  1  0.26642500  0.50958100  0.96298200  1
  C  996  1  0.26459000  0.54080900  0.96892300  1
  C  997  1  0.25805000  0.54081400  0.98661500  1
  C  998  1  0.25623400  0.50959000  0.99256600  1
  C  999  1  0.25313600  0.56665700  0.99777200  1
  C  1000  1  0.24509600  0.56085100  0.01523320  1
  C  1001  1  0.24159600  0.52954800  0.02168420  1
  C  1002  1  0.24794900  0.50385500  0.01021020  1
  C  1003  1  0.27468100  0.50383400  0.94533500  1
  C  1004  1  0.28106400  0.52951900  0.93386100  1
  C  1005  1  0.27756100  0.56082700  0.94030200  1
  C  1006  1  0.26948100  0.56664600  0.95775700  1
  C  1019  1  0.26132100  0.48714700  0.97777500  1
  C  1020  1  0.23216200  0.52483000  0.03890720  1
  C  1021  1  0.29052400  0.52478600  0.91664400  1
  C  1022  1  0.37607100  0.45117500  0.98368800  1
  C  1023  1  0.14656400  0.45124300  0.97169900  1
  C  1028  1  0.23438600  0.86164800  0.47991100  1
  C  1029  1  0.24508700  0.89289500  0.47890500  1
  C  1030  1  0.27773600  0.89288800  0.47651600  1
  C  1031  1  0.28841500  0.86164100  0.47544900  1
  C  1032  1  0.32126900  0.85564600  0.47378600  1
  C  1033  1  0.34354100  0.88095300  0.47315200  1
  C  1034  1  0.33149700  0.91231100  0.47375200  1
  C  1035  1  0.29893400  0.91840900  0.47548300  1
  C  1036  1  0.22390600  0.91842400  0.47997000  1
  C  1037  1  0.19133500  0.91233700  0.48166900  1
  C  1038  1  0.17928500  0.88098400  0.48226300  1
  C  1039  1  0.20153500  0.85566300  0.48160700  1
  C  1040  1  0.25623700  0.81680900  0.46289700  1
  C  1041  1  0.25805700  0.78558600  0.46884400  1
  C  1042  1  0.26464200  0.78558400  0.48653100  1
  C  1043  1  0.26655500  0.81681200  0.49246500  1
  C  1044  1  0.26952800  0.75974500  0.49769600  1
  C  1045  1  0.27759800  0.76556000  0.51515200  1
  C  1046  1  0.28113000  0.79686600  0.52159100  1
  C  1047  1  0.27477800  0.82255800  0.51011500  1
  C  1048  1  0.24794900  0.82255100  0.44525400  1
  C  1049  1  0.24158600  0.79686400  0.43377800  1
  C  1050  1  0.24506600  0.76555800  0.44022900  1
  C  1051  1  0.25311400  0.75974500  0.45768900  1
  C  1064  1  0.26139700  0.83925300  0.47768100  1
  C  1065  1  0.29057300  0.80159100  0.53880800  1
  C  1066  1  0.23216600  0.80158400  0.41655200  1
  C  1067  1  0.14665200  0.87526100  0.48364300  1
  C  1068  1  0.37615900  0.87516400  0.47168500  1
  C  1073  1  0.99741900  0.33056900  0.23114100  1
  C  1074  1  0.02614800  0.34467600  0.22594100  1
  C  1076  1  0.00738700  0.39696300  0.23223200  1
  C  1077  1  0.97776600  0.38432100  0.23764700  1
  C  1078  1  0.97326800  0.35107200  0.23704200  1
  C  1080  1  0.01292200  0.43005800  0.23276600  1
  C  1081  1  0.04756000  0.47435200  0.22799400  1
  C  1082  1  0.02451800  0.49616800  0.23373700  1
  C  1083  1  0.99503400  0.48373400  0.23898400  1
  C  1086  1  0.98873400  0.45082200  0.23866800  1
  C  1087  1  0.95932200  0.43810700  0.24397200  1
  C  1088  1  0.95392300  0.40523400  0.24349700  1
  C  1095  1  0.52530000  0.99588000  0.73109700  1
  C  1096  1  0.49659400  0.98176600  0.72586100  1
  C  1098  1  0.51533900  0.92947700  0.73217200  1
  C  1099  1  0.54493600  0.94212300  0.73761900  1
  C  1100  1  0.54942900  0.97537200  0.73702200  1
  C  1102  1  0.50980700  0.89637400  0.73270300  1
  C  1103  1  0.47519700  0.85206500  0.72790400  1
  C  1104  1  0.49823000  0.83025200  0.73366400  1
  C  1105  1  0.52768900  0.84270200  0.73894100  1
  C  1108  1  0.53398200  0.87561800  0.73863000  1
  C  1109  1  0.56337300  0.88834000  0.74396200  1
  C  1110  1  0.56876500  0.92121500  0.74349400  1
  C  1117  1  0.09399800  0.89922500  0.48113800  1
  C  1118  1  0.07988100  0.92796200  0.47596000  1
  C  1120  1  0.02760700  0.90917900  0.48225600  1
  C  1121  1  0.04025900  0.87955600  0.48765900  1
  C  1122  1  0.07350600  0.87506500  0.48704200  1
  C  1124  1  0.99451100  0.91470800  0.48279800  1
  C  1125  1  0.95020900  0.94934400  0.47805400  1
  C  1126  1  0.92840300  0.92629700  0.48380200  1
  C  1127  1  0.94084600  0.89680200  0.48902700  1
  C  1130  1  0.97375700  0.89050700  0.48869800  1
  C  1131  1  0.98648200  0.86109500  0.49399500  1
  C  1132  1  0.01935700  0.85570500  0.49351000  1
  C  1139  1  0.42870800  0.42718900  0.98113700  1
  C  1140  1  0.44282500  0.39846100  0.97594100  1
  C  1142  1  0.49510500  0.41724000  0.98222800  1
  C  1143  1  0.48245600  0.44685700  0.98764200  1
  C  1144  1  0.44920700  0.45134600  0.98703500  1
  C  1146  1  0.52820200  0.41171300  0.98276300  1
  C  1147  1  0.57250400  0.37707900  0.97800700  1
  C  1148  1  0.59431300  0.40012600  0.98375400  1
  C  1149  1  0.58187000  0.42961600  0.98898700  1
  C  1152  1  0.54895900  0.43590900  0.98866600  1
  C  1153  1  0.53623700  0.46531700  0.99396900  1
  C  1154  1  0.50336100  0.47070600  0.99349400  1
  C  1161  1  0.52530700  0.33057100  0.72434700  1
  C  1162  1  0.49658700  0.34468300  0.72956000  1
  C  1164  1  0.51532900  0.39697200  0.72325000  1
  C  1165  1  0.54494000  0.38432800  0.71782400  1
  C  1166  1  0.54944100  0.35108200  0.71842900  1
  C  1168  1  0.50979100  0.43007200  0.72271100  1
  C  1169  1  0.47517100  0.47437700  0.72750100  1
  C  1170  1  0.49820600  0.49619200  0.72174600  1
  C  1171  1  0.52767500  0.48374800  0.71647900  1
  C  1174  1  0.53397000  0.45083400  0.71679400  1
  C  1175  1  0.56337600  0.43811500  0.71148000  1
  C  1176  1  0.56877400  0.40524100  0.71195900  1
  C  1183  1  0.99744500  0.99581600  0.22432100  1
  C  1184  1  0.02615800  0.98170500  0.22954300  1
  C  1186  1  0.00740600  0.92942200  0.22323600  1
  C  1187  1  0.97780200  0.94206600  0.21780000  1
  C  1188  1  0.97330600  0.97531300  0.21840300  1
  C  1190  1  0.01293900  0.89632500  0.22270500  1
  C  1191  1  0.04755500  0.85202500  0.22750800  1
  C  1192  1  0.02452100  0.83021200  0.22175300  1
  C  1193  1  0.99505700  0.84265000  0.21647600  1
  C  1196  1  0.98876000  0.87556300  0.21678500  1
  C  1197  1  0.95936400  0.88828300  0.21145900  1
  C  1198  1  0.95396800  0.92115600  0.21193100  1
  C  1205  1  0.42872900  0.89918900  0.47434300  1
  C  1206  1  0.44283700  0.92791400  0.47955400  1
  C  1208  1  0.49512100  0.90916700  0.47324400  1
  C  1209  1  0.48248000  0.87955600  0.46781500  1
  C  1210  1  0.44923300  0.87506000  0.46841800  1
  C  1212  1  0.52821700  0.91470500  0.47270300  1
  C  1213  1  0.57251400  0.94934700  0.47745800  1
  C  1214  1  0.59432200  0.92631600  0.47169400  1
  C  1215  1  0.58188400  0.89682800  0.46645600  1
  C  1218  1  0.54897500  0.89052400  0.46678600  1
  C  1219  1  0.53625800  0.86111800  0.46147100  1
  C  1220  1  0.50338700  0.85572200  0.46194800  1
  C  1227  1  0.09399000  0.42722200  0.97435900  1
  C  1228  1  0.07987600  0.39851800  0.97959600  1
  C  1230  1  0.02759400  0.41724800  0.97326000  1
  C  1231  1  0.04024200  0.44684200  0.96780700  1
  C  1232  1  0.07348800  0.45134100  0.96841500  1
  C  1234  1  0.99449700  0.41171000  0.97272000  1
  C  1235  1  0.95019300  0.37710000  0.97752300  1
  C  1236  1  0.92838700  0.40011600  0.97173400  1
  C  1237  1  0.94083000  0.42957700  0.96645700  1
  C  1240  1  0.97374300  0.43587400  0.96677600  1
  C  1241  1  0.98646500  0.46526300  0.96143900  1
  C  1242  1  0.01933700  0.47066100  0.96191800  1
  C  1249  1  0.20085600  0.77653000  0.39367300  1
  C  1250  1  0.21410700  0.78738700  0.37788000  1
  C  1252  1  0.17781900  0.75641700  0.36098100  1
  C  1253  1  0.16329100  0.74482000  0.37643600  1
  C  1254  1  0.17538700  0.75507200  0.39269500  1
  C  1256  1  0.16727300  0.74584100  0.34447000  1
  C  1257  1  0.17275400  0.74655300  0.31340900  1
  C  1258  1  0.14806200  0.72453600  0.31123200  1
  C  1259  1  0.13279500  0.71324000  0.32641000  1
  C  1262  1  0.14206100  0.72370200  0.34320900  1
  C  1263  1  0.12745300  0.71262800  0.35864500  1
  C  1264  1  0.13799800  0.72306400  0.37511400  1
  C  1271  1  0.32185800  0.54980700  0.89377400  1
  C  1272  1  0.30855900  0.53897400  0.87798700  1
  C  1274  1  0.34487400  0.56987800  0.86107300  1
  C  1275  1  0.35945900  0.58144300  0.87651900  1
  C  1276  1  0.34737700  0.57120400  0.89278400  1
  C  1278  1  0.35541000  0.58042500  0.84455700  1
  C  1279  1  0.34985000  0.57970800  0.81350300  1
  C  1280  1  0.37462000  0.60162900  0.81130500  1
  C  1281  1  0.38992300  0.61293500  0.82646800  1
  C  1284  1  0.38067400  0.60250300  0.84327500  1
  C  1285  1  0.39533200  0.61355300  0.85870200  1
  C  1286  1  0.38479600  0.60314400  0.87518000  1
  C  1293  1  0.64798700  0.10262400  0.64379200  1
  C  1294  1  0.63712100  0.11589900  0.62800500  1
  C  1296  1  0.66801600  0.07957680  0.61109600  1
  C  1297  1  0.67956500  0.06497380  0.62653900  1
  C  1298  1  0.66933900  0.07706880  0.64280400  1
  C  1300  1  0.67857000  0.06905380  0.59458000  1
  C  1301  1  0.67789600  0.07469380  0.56353500  1
  C  1302  1  0.69981300  0.04992580  0.56133100  1
  C  1303  1  0.71107900  0.03455580  0.57648300  1
  C  1306  1  0.70063400  0.04377980  0.59329300  1
  C  1307  1  0.71166100  0.02909380  0.60871800  1
  C  1308  1  0.70124800  0.03962180  0.62519600  1
  C  1315  1  0.87470800  0.22370200  0.14374500  1
  C  1316  1  0.88564000  0.21046200  0.12796500  1
  C  1318  1  0.85476000  0.24678400  0.11104600  1
  C  1319  1  0.84315300  0.26135200  0.12648800  1
  C  1320  1  0.85335800  0.24925900  0.14275600  1
  C  1322  1  0.84422900  0.25731000  0.09452720  1
  C  1323  1  0.84497600  0.25170300  0.06348120  1
  C  1324  1  0.82301900  0.27643600  0.06126820  1
  C  1325  1  0.81170600  0.29177700  0.07641820  1
  C  1328  1  0.82213000  0.28255600  0.09323220  1
  C  1329  1  0.81105100  0.29720900  0.10865500  1
  C  1330  1  0.82143700  0.28667800  0.12513800  1
  C  1337  1  0.32191200  0.77659200  0.56167700  1
  C  1338  1  0.30854500  0.78737100  0.57745700  1
  C  1340  1  0.34489300  0.75654000  0.59438500  1
  C  1341  1  0.35954100  0.74501900  0.57894900  1
  C  1342  1  0.34747000  0.75524000  0.56267800  1
  C  1344  1  0.35540200  0.74599500  0.61090700  1
  C  1345  1  0.34971000  0.74665000  0.64195000  1
  C  1346  1  0.37449900  0.72475600  0.64416500  1
  C  1347  1  0.38992100  0.71353300  0.62902100  1
  C  1350  1  0.38070700  0.72396400  0.61220700  1
  C  1351  1  0.39543300  0.71296600  0.59678700  1
  C  1352  1  0.38491900  0.72336900  0.58030300  1
  C  1359  1  0.20085000  0.54988000  0.06178520  1
  C  1360  1  0.21406800  0.53898000  0.07757820  1
  C  1362  1  0.17779900  0.56997300  0.09447720  1
  C  1363  1  0.16329500  0.58160100  0.07902120  1
  C  1364  1  0.17539200  0.57135000  0.06276220  1
  C  1366  1  0.16725200  0.58054500  0.11098800  1
  C  1367  1  0.17272000  0.57981200  0.14204900  1
  C  1368  1  0.14802900  0.60183100  0.14422800  1
  C  1369  1  0.13280100  0.61317300  0.12904800  1
  C  1372  1  0.14205900  0.60270700  0.11225000  1
  C  1373  1  0.12747500  0.61381100  0.09681220  1
  C  1374  1  0.13802200  0.60338000  0.08034320  1
  C  1381  1  0.87477400  0.10271400  0.31170000  1
  C  1382  1  0.88560700  0.11601000  0.32748800  1
  C  1384  1  0.85472200  0.07966880  0.34439200  1
  C  1385  1  0.84320500  0.06504880  0.32894600  1
  C  1386  1  0.85344300  0.07713980  0.31268400  1
  C  1388  1  0.84416500  0.06914080  0.36090600  1
  C  1389  1  0.84481700  0.07477880  0.39195000  1
  C  1390  1  0.82292400  0.04998680  0.39415100  1
  C  1391  1  0.81168000  0.03461080  0.37899700  1
  C  1394  1  0.82212300  0.04384380  0.36218900  1
  C  1395  1  0.81112400  0.02914580  0.34676200  1
  C  1396  1  0.82154400  0.03967580  0.33028500  1
  C  1403  1  0.64804900  0.22379900  0.81172600  1
  C  1404  1  0.63708100  0.21061400  0.82751300  1
  C  1406  1  0.66805100  0.24688800  0.84441400  1
  C  1407  1  0.67969700  0.26139700  0.82896400  1
  C  1408  1  0.66946200  0.24929900  0.81270300  1
  C  1410  1  0.67860300  0.25743300  0.86092800  1
  C  1411  1  0.67782100  0.25194500  0.89198400  1
  C  1412  1  0.69983900  0.27662700  0.89417400  1
  C  1413  1  0.71119700  0.29188100  0.87900600  1
  C  1416  1  0.70075900  0.28262900  0.86220200  1
  C  1417  1  0.71188300  0.29721600  0.84677000  1
  C  1418  1  0.70147500  0.28666900  0.83029600  1
  N  363  1  0.03009600  0.97470300  0.13528100  1
  N  373  1  0.04108200  0.04096900  0.13635100  1
  N  381  1  0.99535500  0.89713300  0.13919000  1
  N  382  1  0.02791500  0.12575800  0.14270700  1
  N  385  1  0.49264600  0.54804600  0.63519700  1
  N  395  1  0.48166600  0.48176300  0.63626400  1
  N  403  1  0.52735600  0.62563500  0.63917900  1
  N  404  1  0.49483800  0.39697000  0.64263700  1
  N  407  1  0.04801000  0.53005800  0.38530900  1
  N  417  1  0.98174700  0.54102600  0.38639500  1
  N  425  1  0.12558600  0.49533600  0.38918300  1
  N  426  1  0.89697400  0.52784800  0.39280400  1
  N  429  1  0.47469600  0.99267900  0.88528000  1
  N  439  1  0.54096400  0.98170900  0.88635500  1
  N  447  1  0.39711600  0.02739700  0.88919300  1
  N  448  1  0.62574400  0.99489000  0.89274800  1
  N  451  1  0.49263200  0.97471200  0.63748700  1
  N  461  1  0.48164500  0.04099200  0.63641200  1
  N  469  1  0.52737300  0.89713000  0.63355000  1
  N  470  1  0.49482800  0.12579100  0.63009100  1
  N  473  1  0.03010400  0.54798700  0.13747600  1
  N  483  1  0.04108300  0.48172100  0.13641400  1
  N  491  1  0.99538800  0.62556200  0.13352800  1
  N  492  1  0.02791200  0.39693200  0.13006800  1
  N  495  1  0.47470800  0.53002200  0.38747900  1
  N  505  1  0.54097600  0.54101900  0.38638900  1
  N  513  1  0.39713500  0.49528900  0.38352800  1
  N  514  1  0.62575100  0.52787600  0.37995000  1
  N  517  1  0.04800400  0.99272000  0.88752100  1
  N  527  1  0.98173300  0.98173300  0.88644100  1
  N  535  1  0.12558400  0.02744200  0.88355800  1
  N  536  1  0.89694800  0.99489400  0.88005900  1
  N  539  1  0.20241600  0.37519000  0.27102600  1
  N  549  1  0.18142400  0.35434800  0.23823200  1
  N  557  1  0.21336400  0.37977500  0.31792400  1
  N  558  1  0.14184000  0.31294900  0.20372900  1
  N  561  1  0.32023400  0.14747100  0.77112900  1
  N  571  1  0.34119100  0.16826000  0.73833300  1
  N  579  1  0.30936800  0.14288300  0.81803100  1
  N  580  1  0.38075900  0.20953600  0.70379800  1
  N  583  1  0.64747000  0.70238300  0.52114900  1
  N  593  1  0.66827300  0.68147300  0.48836500  1
  N  601  1  0.64290500  0.71331100  0.56803500  1
  N  602  1  0.70959200  0.64201900  0.45382700  1
  N  605  1  0.87534100  0.82031900  0.02110500  1
  N  615  1  0.85457500  0.84123400  0.98831500  1
  N  623  1  0.87983900  0.80937700  0.06799600  1
  N  624  1  0.81325100  0.88064500  0.95376000  1
  N  627  1  0.32021300  0.37520400  0.50159000  1
  N  637  1  0.34110600  0.35442600  0.53438600  1
  N  645  1  0.30943400  0.37981600  0.45468700  1
  N  646  1  0.38057700  0.31316600  0.56894600  1
  N  649  1  0.20237900  0.14749200  0.00170200  1
  N  659  1  0.18139100  0.16833300  0.03449500  1
  N  667  1  0.21337900  0.14296400  0.95480800  1
  N  668  1  0.14185600  0.20976800  0.06899900  1
  N  671  1  0.87524900  0.70249100  0.25161200  1
  N  681  1  0.85444000  0.68156700  0.28439100  1
  N  689  1  0.87988400  0.71337400  0.20472300  1
  N  690  1  0.81315200  0.64205900  0.31892300  1
  N  693  1  0.64740600  0.82047500  0.75163800  1
  N  703  1  0.66821200  0.84143700  0.78442500  1
  N  711  1  0.64287900  0.80947900  0.70474700  1
  N  712  1  0.70959900  0.88092400  0.81894700  1
  N  1075  1  0.03009600  0.37654700  0.22664600  1
  N  1085  1  0.04108200  0.44281300  0.22771600  1
  N  1093  1  0.99535500  0.29897700  0.23055500  1
  N  1094  1  0.02791500  0.52760200  0.23407200  1
  N  1097  1  0.49264600  0.94989000  0.72656200  1
  N  1107  1  0.48166600  0.88360700  0.72762900  1
  N  1115  1  0.52735600  0.02747880  0.73054400  1
  N  1116  1  0.49483800  0.79881400  0.73400200  1
  N  1119  1  0.04801000  0.93190200  0.47667400  1
  N  1129  1  0.98174700  0.94287000  0.47776000  1
  N  1137  1  0.12558600  0.89718000  0.48054800  1
  N  1138  1  0.89697400  0.92969200  0.48416900  1
  N  1141  1  0.47469600  0.39452300  0.97664500  1
  N  1151  1  0.54096400  0.38355300  0.97772000  1
  N  1159  1  0.39711600  0.42924100  0.98055800  1
  N  1160  1  0.62574400  0.39673400  0.98411300  1
  N  1163  1  0.49263200  0.37655600  0.72885200  1
  N  1173  1  0.48164500  0.44283600  0.72777700  1
  N  1181  1  0.52737300  0.29897400  0.72491500  1
  N  1182  1  0.49482800  0.52763500  0.72145600  1
  N  1185  1  0.03010400  0.94983100  0.22884100  1
  N  1195  1  0.04108300  0.88356500  0.22777900  1
  N  1203  1  0.99538800  0.02740580  0.22489300  1
  N  1204  1  0.02791200  0.79877600  0.22143300  1
  N  1207  1  0.47470800  0.93186600  0.47884400  1
  N  1217  1  0.54097600  0.94286300  0.47775400  1
  N  1225  1  0.39713500  0.89713300  0.47489300  1
  N  1226  1  0.62575100  0.92972000  0.47131500  1
  N  1229  1  0.04800400  0.39456400  0.97888600  1
  N  1239  1  0.98173300  0.38357700  0.97780600  1
  N  1247  1  0.12558400  0.42928600  0.97492300  1
  N  1248  1  0.89694800  0.39673800  0.97142400  1
  N  1251  1  0.20241600  0.77703400  0.36239100  1
  N  1261  1  0.18142400  0.75619200  0.32959700  1
  N  1269  1  0.21336400  0.78161900  0.40928900  1
  N  1270  1  0.14184000  0.71479300  0.29509400  1
  N  1273  1  0.32023400  0.54931500  0.86249400  1
  N  1283  1  0.34119100  0.57010400  0.82969800  1
  N  1291  1  0.30936800  0.54472700  0.90939600  1
  N  1292  1  0.38075900  0.61138000  0.79516300  1
  N  1295  1  0.64747000  0.10422700  0.61251400  1
  N  1305  1  0.66827300  0.08331680  0.57973000  1
  N  1313  1  0.64290500  0.11515500  0.65940000  1
  N  1314  1  0.70959200  0.04386280  0.54519200  1
  N  1317  1  0.87534100  0.22216300  0.11247000  1
  N  1327  1  0.85457500  0.24307800  0.07968020  1
  N  1335  1  0.87983900  0.21122100  0.15936100  1
  N  1336  1  0.81325100  0.28248900  0.04512520  1
  N  1339  1  0.32021300  0.77704800  0.59295500  1
  N  1349  1  0.34110600  0.75627000  0.62575100  1
  N  1357  1  0.30943400  0.78166000  0.54605200  1
  N  1358  1  0.38057700  0.71501000  0.66031100  1
  N  1361  1  0.20237900  0.54933600  0.09306720  1
  N  1371  1  0.18139100  0.57017700  0.12586000  1
  N  1379  1  0.21337900  0.54480800  0.04617320  1
  N  1380  1  0.14185600  0.61161200  0.16036400  1
  N  1383  1  0.87524900  0.10433500  0.34297700  1
  N  1393  1  0.85444000  0.08341080  0.37575600  1
  N  1401  1  0.87988400  0.11521800  0.29608800  1
  N  1402  1  0.81315200  0.04390280  0.41028800  1
  N  1405  1  0.64740600  0.22231900  0.84300300  1
  N  1415  1  0.66821200  0.24328100  0.87579000  1
  N  1423  1  0.64287900  0.21132300  0.79611200  1
  N  1424  1  0.70959900  0.28276800  0.91031200  1
  O  379  1  0.93575000  0.05534900  0.15829900  1
  O  380  1  0.92541500  0.99231300  0.15739000  1
  O  401  1  0.58693100  0.46741800  0.65831300  1
  O  402  1  0.59725300  0.53045300  0.65741200  1
  O  423  1  0.96740600  0.43567400  0.40832300  1
  O  424  1  0.03044400  0.42535400  0.40739500  1
  O  445  1  0.55531500  0.08704800  0.90829800  1
  O  446  1  0.49227800  0.09736600  0.90738700  1
  O  467  1  0.58694200  0.05535300  0.61441600  1
  O  468  1  0.59727900  0.99232000  0.61533400  1
  O  489  1  0.93580400  0.46735600  0.11438700  1
  O  490  1  0.92547200  0.53039400  0.11529200  1
  O  511  1  0.55534100  0.43571400  0.36439900  1
  O  512  1  0.49230600  0.42538000  0.36531200  1
  O  533  1  0.96738700  0.08696700  0.86434600  1
  O  534  1  0.03042100  0.09730300  0.86526400  1
  O  555  1  0.10331900  0.28975800  0.26658000  1
  O  556  1  0.12357000  0.30977700  0.29822100  1
  O  577  1  0.41951100  0.23268100  0.76662000  1
  O  578  1  0.39927900  0.21271200  0.79827600  1
  O  599  1  0.73261800  0.60306100  0.51663000  1
  O  600  1  0.71264400  0.62327900  0.54829200  1
  O  621  1  0.79005800  0.91952500  0.01656100  1
  O  622  1  0.80998900  0.89930300  0.04823000  1
  O  643  1  0.41965300  0.29020000  0.50615600  1
  O  644  1  0.39946100  0.31015200  0.47448600  1
  O  665  1  0.10336600  0.23301900  0.00614800  1
  O  666  1  0.12361800  0.21300700  0.97450600  1
  O  687  1  0.79019000  0.60309200  0.25611500  1
  O  688  1  0.81017600  0.62331600  0.22445800  1
  O  709  1  0.73293200  0.91948200  0.75611700  1
  O  710  1  0.71296100  0.89923400  0.72446400  1
  O  1091  1  0.93575000  0.45719300  0.24966400  1
  O  1092  1  0.92541500  0.39415700  0.24875500  1
  O  1113  1  0.58693100  0.86926200  0.74967800  1
  O  1114  1  0.59725300  0.93229700  0.74877700  1
  O  1135  1  0.96740600  0.83751800  0.49968800  1
  O  1136  1  0.03044400  0.82719800  0.49876000  1
  O  1157  1  0.55531500  0.48889200  0.99966300  1
  O  1158  1  0.49227800  0.49921000  0.99875200  1
  O  1179  1  0.58694200  0.45719700  0.70578100  1
  O  1180  1  0.59727900  0.39416400  0.70669900  1
  O  1201  1  0.93580400  0.86920000  0.20575200  1
  O  1202  1  0.92547200  0.93223800  0.20665700  1
  O  1223  1  0.55534100  0.83755800  0.45576400  1
  O  1224  1  0.49230600  0.82722400  0.45667700  1
  O  1245  1  0.96738700  0.48881100  0.95571100  1
  O  1246  1  0.03042100  0.49914700  0.95662900  1
  O  1267  1  0.10331900  0.69160200  0.35794500  1
  O  1268  1  0.12357000  0.71162100  0.38958600  1
  O  1289  1  0.41951100  0.63452500  0.85798500  1
  O  1290  1  0.39927900  0.61455600  0.88964100  1
  O  1311  1  0.73261800  0.00490475  0.60799500  1
  O  1312  1  0.71264400  0.02512280  0.63965700  1
  O  1333  1  0.79005800  0.32136900  0.10792600  1
  O  1334  1  0.80998900  0.30114700  0.13959500  1
  O  1355  1  0.41965300  0.69204400  0.59752100  1
  O  1356  1  0.39946100  0.71199600  0.56585100  1
  O  1377  1  0.10336600  0.63486300  0.09751320  1
  O  1378  1  0.12361800  0.61485100  0.06587120  1
  O  1399  1  0.79019000  0.00493575  0.34748000  1
  O  1400  1  0.81017600  0.02515980  0.31582300  1
  O  1421  1  0.73293200  0.32132600  0.84748200  1
  O  1422  1  0.71296100  0.30107800  0.81582900  1
