# generated using pymatgen
data_H9(C4N)4
_symmetry_space_group_name_H-M   'P 1'
_cell_length_a   18.88070000
_cell_length_b   89.60600000
_cell_length_c   89.60600000
_cell_angle_alpha   90.00000000
_cell_angle_beta   90.28410000
_cell_angle_gamma   89.71590000
_symmetry_Int_Tables_number   1
_chemical_formula_structural   H9(C4N)4
_chemical_formula_sum   'H576 C1024 N256'
_cell_volume   151593.85444689
_cell_formula_units_Z   64
loop_
 _symmetry_equiv_pos_site_id
 _symmetry_equiv_pos_as_xyz
  1  'x, y, z'
loop_
 _atom_site_type_symbol
 _atom_site_label
 _atom_site_symmetry_multiplicity
 _atom_site_fract_x
 _atom_site_fract_y
 _atom_site_fract_z
 _atom_site_occupancy
  C  1  1  0.09155900  0.91829000  0.06116700  1
  C  2  1  0.11303600  0.91621000  0.04614900  1
  C  3  1  0.09599700  0.92676600  0.03489800  1
  C  4  1  0.05672800  0.93958700  0.03877100  1
  C  5  1  0.03338600  0.94199900  0.05346400  1
  C  6  1  0.05247000  0.93146700  0.06454500  1
  C  10  1  0.10346500  0.90694900  0.07232500  1
  C  11  1  0.16764900  0.89849900  0.07343100  1
  C  12  1  0.17588600  0.88665300  0.08382600  1
  C  13  1  0.12054600  0.88436050  0.09409800  1
  C  14  1  0.05823300  0.89284800  0.09376800  1
  C  15  1  0.04861500  0.90365300  0.08259700  1
  C  23  1  0.09310600  0.05121900  0.41307850  1
  C  24  1  0.11458900  0.05332200  0.42813400  1
  C  25  1  0.09721100  0.04288300  0.43940300  1
  C  26  1  0.05767600  0.03016200  0.43551700  1
  C  27  1  0.03438400  0.02772400  0.42078800  1
  C  28  1  0.05374100  0.03813350  0.40969000  1
  C  32  1  0.10483200  0.06250500  0.40189750  1
  C  33  1  0.16901000  0.07081700  0.40078300  1
  C  34  1  0.17689800  0.08261300  0.39034000  1
  C  35  1  0.12111000  0.08497600  0.38004700  1
  C  36  1  0.05871500  0.07665750  0.38041700  1
  C  37  1  0.04954200  0.06591100  0.39161650  1
  C  45  1  0.09139600  0.16097400  0.17132200  1
  C  46  1  0.11264500  0.17600400  0.16925400  1
  C  47  1  0.09521400  0.18727700  0.17972500  1
  C  48  1  0.05586600  0.18341200  0.19245550  1
  C  49  1  0.03279900  0.16870750  0.19486300  1
  C  50  1  0.05224800  0.15760900  0.18441750  1
  C  54  1  0.10337700  0.14979800  0.16001800  1
  C  55  1  0.16745200  0.14869100  0.15165400  1
  C  56  1  0.17559900  0.13826800  0.13983950  1
  C  57  1  0.12030300  0.12796600  0.13751500  1
  C  58  1  0.05805300  0.12832000  0.14588750  1
  C  59  1  0.04853400  0.13951100  0.15665200  1
  C  67  1  0.09122000  0.80890200  0.30443200  1
  C  68  1  0.11252900  0.79383700  0.30659600  1
  C  69  1  0.09537700  0.78259000  0.29608200  1
  C  70  1  0.05638400  0.78651000  0.28321750  1
  C  71  1  0.03331800  0.80125200  0.28072050  1
  C  72  1  0.05233700  0.81232850  0.29121600  1
  C  76  1  0.10280800  0.82006850  0.31575050  1
  C  77  1  0.16704600  0.82120100  0.32416300  1
  C  78  1  0.17498500  0.83166200  0.33595200  1
  C  79  1  0.11916400  0.84194200  0.33822600  1
  C  80  1  0.05674600  0.84156800  0.32978150  1
  C  81  1  0.04754000  0.83035850  0.31902500  1
  C  89  1  0.63986300  0.92077500  0.41036800  1
  C  90  1  0.62077700  0.91846200  0.42547600  1
  C  91  1  0.63844300  0.92898900  0.43670050  1
  C  92  1  0.67598000  0.94193600  0.43269900  1
  C  93  1  0.69635100  0.94455700  0.41781600  1
  C  94  1  0.67597200  0.93419000  0.40679300  1
  C  98  1  0.63098100  0.90936200  0.39922900  1
  C  99  1  0.56786700  0.90091800  0.39725900  1
  C  100  1  0.56108700  0.89009600  0.38574800  1
  C  101  1  0.62000900  0.88765300  0.37638100  1
  C  102  1  0.68367300  0.89537300  0.37834850  1
  C  103  1  0.68891900  0.90604700  0.38978100  1
  C  111  1  0.64076100  0.04994300  0.06435000  1
  C  112  1  0.62156900  0.05238800  0.04922000  1
  C  113  1  0.63919600  0.04188350  0.03797700  1
  C  114  1  0.67669000  0.02883000  0.04197600  1
  C  115  1  0.69717400  0.02608400  0.05687700  1
  C  116  1  0.67695200  0.03644000  0.06791900  1
  C  120  1  0.63208800  0.06130650  0.07554000  1
  C  121  1  0.56870900  0.06974100  0.07759700  1
  C  122  1  0.56210200  0.08047350  0.08919700  1
  C  123  1  0.62145700  0.08283400  0.09855700  1
  C  124  1  0.68529400  0.07509450  0.09652600  1
  C  125  1  0.69038700  0.06451600  0.08500400  1
  C  133  1  0.63854400  0.15807500  0.30179150  1
  C  134  1  0.61943900  0.17321600  0.30417950  1
  C  135  1  0.63714600  0.18444550  0.29369900  1
  C  136  1  0.67455500  0.18041800  0.28072000  1
  C  137  1  0.69492100  0.16550800  0.27802550  1
  C  138  1  0.67458500  0.15448500  0.28834900  1
  C  142  1  0.63003000  0.14690000  0.31316900  1
  C  143  1  0.56688700  0.14484600  0.32155750  1
  C  144  1  0.56051500  0.13323000  0.33227200  1
  C  145  1  0.61993700  0.12386800  0.33467800  1
  C  146  1  0.68357300  0.12589900  0.32700050  1
  C  147  1  0.68838500  0.13742850  0.31643500  1
  C  155  1  0.64410000  0.81164900  0.17225000  1
  C  156  1  0.62509700  0.79653850  0.16986500  1
  C  157  1  0.64244300  0.78531300  0.18045200  1
  C  158  1  0.67938100  0.78932900  0.19355100  1
  C  159  1  0.69954700  0.80421850  0.19624450  1
  C  160  1  0.67964800  0.81523700  0.18579500  1
  C  164  1  0.63531300  0.82280150  0.16084050  1
  C  165  1  0.57205700  0.82481200  0.15232900  1
  C  166  1  0.56513400  0.83636800  0.14155050  1
  C  167  1  0.62402100  0.84574100  0.13922000  1
  C  168  1  0.68777000  0.84375800  0.14704150  1
  C  169  1  0.69320200  0.83227200  0.15767000  1
  C  177  1  0.64510400  0.04883200  0.91447000  1
  C  178  1  0.59408000  0.04790900  0.92605000  1
  C  179  1  0.59708300  0.03698300  0.93738850  1
  C  180  1  0.65238400  0.02637200  0.93734350  1
  C  181  1  0.70380500  0.02657550  0.92601100  1
  C  182  1  0.69919200  0.03764450  0.91477450  1
  C  186  1  0.64160500  0.06046050  0.90307350  1
  C  187  1  0.57838600  0.06880600  0.89975300  1
  C  188  1  0.57696900  0.08100500  0.88967900  1
  C  189  1  0.63874000  0.08369650  0.88139450  1
  C  190  1  0.70017700  0.07518050  0.88341500  1
  C  191  1  0.70277500  0.06425100  0.89463350  1
  C  199  1  0.63815700  0.92177600  0.56031900  1
  C  200  1  0.58728500  0.92273800  0.54860250  1
  C  201  1  0.59053700  0.93358200  0.53720100  1
  C  202  1  0.64586100  0.94407100  0.53733100  1
  C  203  1  0.69710000  0.94384300  0.54880850  1
  C  204  1  0.69220900  0.93286300  0.56011200  1
  C  208  1  0.63472000  0.91016100  0.57171450  1
  C  209  1  0.57153500  0.90194900  0.57495600  1
  C  210  1  0.57034100  0.88972200  0.58500050  1
  C  211  1  0.63233700  0.88689800  0.59334200  1
  C  212  1  0.69381100  0.89525200  0.59137000  1
  C  213  1  0.69612000  0.90620700  0.58018800  1
  C  221  1  0.65675900  0.80954500  0.80342500  1
  C  222  1  0.63539500  0.79452150  0.80547850  1
  C  223  1  0.65295600  0.78324850  0.79502000  1
  C  224  1  0.69226700  0.78713350  0.78229050  1
  C  225  1  0.71545300  0.80183850  0.77991950  1
  C  226  1  0.69627400  0.81292800  0.79039600  1
  C  230  1  0.64438700  0.82070100  0.81469650  1
  C  231  1  0.57922100  0.82197100  0.82264500  1
  C  232  1  0.57036200  0.83229150  0.83451350  1
  C  233  1  0.62635900  0.84230100  0.83733100  1
  C  234  1  0.68975100  0.84180050  0.82935500  1
  C  235  1  0.69968500  0.83074700  0.81846200  1
  C  243  1  0.65178300  0.16028350  0.67070950  1
  C  244  1  0.63024700  0.17534200  0.66860850  1
  C  245  1  0.64811500  0.18659450  0.67906150  1
  C  246  1  0.68784500  0.18266400  0.69182300  1
  C  247  1  0.71114900  0.16792300  0.69424150  1
  C  248  1  0.69174500  0.15684900  0.68377200  1
  C  252  1  0.63926700  0.14913300  0.65944100  1
  C  253  1  0.57377800  0.14788500  0.65149250  1
  C  254  1  0.56473900  0.13754300  0.63964250  1
  C  255  1  0.62098600  0.12750500  0.63684200  1
  C  256  1  0.68470300  0.12798200  0.64482900  1
  C  257  1  0.69473300  0.13904850  0.65570350  1
  C  265  1  0.11033500  0.04821900  0.56265600  1
  C  266  1  0.15921700  0.04760000  0.55068900  1
  C  267  1  0.15608100  0.03653500  0.53949800  1
  C  268  1  0.10334500  0.02547150  0.54023450  1
  C  269  1  0.05303800  0.02552700  0.55187100  1
  C  270  1  0.05810000  0.03677900  0.56289300  1
  C  274  1  0.11508600  0.05948950  0.57430600  1
  C  275  1  0.17903200  0.06713950  0.57808300  1
  C  276  1  0.18285000  0.07794200  0.58962300  1
  C  277  1  0.12091100  0.08090700  0.59782300  1
  C  278  1  0.05677000  0.07392000  0.59436500  1
  C  279  1  0.05389400  0.06358250  0.58255550  1
  C  287  1  0.11582300  0.92131500  0.91186950  1
  C  288  1  0.16492600  0.92175400  0.92390100  1
  C  289  1  0.16185100  0.93273400  0.93517500  1
  C  290  1  0.10902600  0.94389300  0.93445550  1
  C  291  1  0.05849900  0.94400900  0.92275600  1
  C  292  1  0.06346700  0.93284000  0.91164950  1
  C  296  1  0.12040400  0.91011400  0.90015700  1
  C  297  1  0.18447000  0.90246100  0.89635300  1
  C  298  1  0.18814200  0.89170000  0.88477400  1
  C  299  1  0.12591900  0.88878800  0.87656650  1
  C  300  1  0.06169800  0.89580900  0.88003300  1
  C  301  1  0.05898000  0.90610400  0.89187950  1
  C  309  1  0.10565700  0.81216000  0.67238150  1
  C  310  1  0.12513500  0.79702200  0.67013750  1
  C  311  1  0.10719400  0.78585950  0.68066600  1
  C  312  1  0.06952500  0.78998000  0.69358100  1
  C  313  1  0.04880100  0.80490200  0.69611300  1
  C  314  1  0.06883100  0.81585300  0.68568550  1
  C  318  1  0.11509200  0.82323500  0.66098600  1
  C  319  1  0.17993300  0.82548300  0.65325500  1
  C  320  1  0.18766000  0.83706250  0.64256100  1
  C  321  1  0.12769100  0.84600450  0.63933000  1
  C  322  1  0.06261300  0.84377100  0.64637200  1
  C  323  1  0.05653400  0.83242400  0.65710200  1
  C  331  1  0.10413400  0.15787100  0.80214550  1
  C  332  1  0.12383800  0.17296600  0.80433200  1
  C  333  1  0.10560700  0.18414250  0.79376200  1
  C  334  1  0.06734400  0.18006600  0.78085200  1
  C  335  1  0.04644400  0.16518000  0.77837050  1
  C  336  1  0.06680200  0.15421650  0.78884350  1
  C  340  1  0.11439300  0.14680450  0.81355650  1
  C  341  1  0.17958900  0.14461600  0.82133800  1
  C  342  1  0.18826800  0.13310400  0.83209900  1
  C  343  1  0.12895800  0.12413450  0.83531900  1
  C  344  1  0.06354700  0.12630000  0.82821050  1
  C  345  1  0.05647500  0.13760150  0.81742850  1
  C  353  1  0.09117800  0.41834200  0.56183000  1
  C  354  1  0.11244800  0.41626900  0.54679650  1
  C  355  1  0.09467300  0.42676700  0.53554100  1
  C  356  1  0.05516200  0.43954400  0.53945000  1
  C  357  1  0.03205200  0.44193250  0.55416500  1
  C  358  1  0.05145900  0.43141900  0.56523900  1
  C  362  1  0.10387900  0.40705800  0.57298300  1
  C  363  1  0.16930300  0.39906950  0.57424800  1
  C  364  1  0.17857100  0.38720100  0.58457300  1
  C  365  1  0.12267700  0.38441400  0.59458500  1
  C  366  1  0.05906500  0.39244750  0.59410400  1
  C  367  1  0.04874100  0.40333900  0.58304200  1
  C  375  1  0.09762700  0.55088100  0.91259800  1
  C  376  1  0.11887300  0.55295500  0.92767300  1
  C  377  1  0.10084500  0.54254750  0.93892200  1
  C  378  1  0.06115300  0.52986800  0.93497550  1
  C  379  1  0.03812900  0.52747400  0.92021850  1
  C  380  1  0.05774000  0.53789100  0.90914850  1
  C  384  1  0.11015400  0.56213300  0.90145000  1
  C  385  1  0.17546800  0.57002300  0.90024800  1
  C  386  1  0.18438000  0.58187650  0.88992300  1
  C  387  1  0.12818500  0.58474000  0.87985600  1
  C  388  1  0.06461600  0.57683300  0.88030100  1
  C  389  1  0.05470600  0.56595650  0.89134800  1
  C  397  1  0.10397500  0.66194600  0.67407800  1
  C  398  1  0.15427400  0.67367750  0.67485300  1
  C  399  1  0.15116700  0.68512050  0.68567000  1
  C  400  1  0.09660200  0.68496800  0.69633600  1
  C  401  1  0.04607700  0.67345150  0.69633300  1
  C  402  1  0.05078100  0.66214000  0.68534100  1
  C  406  1  0.10718900  0.65051800  0.66249500  1
  C  407  1  0.17015400  0.64717650  0.65420400  1
  C  408  1  0.17113000  0.63707400  0.64202300  1
  C  409  1  0.10922200  0.62879000  0.63933300  1
  C  410  1  0.04794100  0.63089100  0.64775000  1
  C  411  1  0.04578100  0.64212200  0.65866100  1
  C  419  1  0.10854500  0.30786900  0.80107700  1
  C  420  1  0.15922100  0.29610900  0.80028950  1
  C  421  1  0.15590700  0.28465700  0.78948900  1
  C  422  1  0.10059500  0.28479750  0.77887600  1
  C  423  1  0.04968300  0.29634100  0.77890050  1
  C  424  1  0.05463200  0.30767800  0.78985550  1
  C  428  1  0.11202600  0.31930200  0.81265100  1
  C  429  1  0.17538700  0.32263300  0.82088950  1
  C  430  1  0.17671200  0.33272700  0.83307700  1
  C  431  1  0.11459400  0.34100900  0.83583300  1
  C  432  1  0.05289300  0.33894000  0.82744650  1
  C  433  1  0.05053700  0.32772500  0.81651850  1
  C  441  1  0.64530800  0.42027600  0.91036850  1
  C  442  1  0.62576700  0.41814850  0.92547600  1
  C  443  1  0.64387300  0.42872200  0.93662650  1
  C  444  1  0.68195500  0.44156550  0.93251000  1
  C  445  1  0.70277500  0.44398200  0.91761500  1
  C  446  1  0.68248200  0.43351400  0.90668200  1
  C  450  1  0.63537100  0.40884650  0.89932250  1
  C  451  1  0.57032200  0.40115500  0.89707500  1
  C  452  1  0.56200400  0.39041250  0.88554550  1
  C  453  1  0.62159000  0.38709000  0.87664900  1
  C  454  1  0.68689400  0.39408250  0.87889050  1
  C  455  1  0.69354900  0.40487000  0.89018350  1
  C  463  1  0.64045100  0.55005300  0.56426450  1
  C  464  1  0.62080600  0.55227500  0.54912900  1
  C  465  1  0.63895200  0.54170550  0.53798350  1
  C  466  1  0.67709800  0.52877800  0.54212600  1
  C  467  1  0.69801400  0.52627000  0.55704750  1
  C  468  1  0.67778100  0.53674200  0.56797950  1
  C  472  1  0.63058600  0.56146300  0.57532600  1
  C  473  1  0.56531400  0.56916100  0.57758600  1
  C  474  1  0.55709400  0.57988450  0.58913450  1
  C  475  1  0.61695000  0.58316400  0.59804600  1
  C  476  1  0.68238400  0.57612650  0.59582100  1
  C  477  1  0.68898900  0.56537250  0.58449700  1
  C  485  1  0.63556700  0.65958100  0.80106700  1
  C  486  1  0.58707500  0.67172500  0.80069400  1
  C  487  1  0.59022700  0.68306700  0.78977950  1
  C  488  1  0.64249800  0.68226700  0.77861600  1
  C  489  1  0.69236800  0.67044500  0.77842150  1
  C  490  1  0.68726700  0.65928550  0.78952300  1
  C  494  1  0.63107300  0.64783300  0.81222250  1
  C  495  1  0.56726300  0.64405400  0.81985400  1
  C  496  1  0.56380500  0.63240300  0.83054250  1
  C  497  1  0.62603900  0.62413450  0.83341900  1
  C  498  1  0.69003700  0.62759350  0.82643800  1
  C  499  1  0.69251300  0.63949250  0.81621000  1
  C  507  1  0.63691500  0.31003450  0.67363300  1
  C  508  1  0.58823300  0.29803000  0.67413800  1
  C  509  1  0.59140000  0.28682700  0.68520200  1
  C  510  1  0.64409000  0.28762700  0.69638350  1
  C  511  1  0.69422100  0.29929800  0.69644750  1
  C  512  1  0.68914500  0.31030350  0.68517450  1
  C  516  1  0.63190500  0.32170400  0.66238300  1
  C  517  1  0.56770100  0.32549200  0.65470700  1
  C  518  1  0.56352900  0.33704900  0.64392350  1
  C  519  1  0.62536700  0.34525300  0.64100450  1
  C  520  1  0.68971700  0.34180650  0.64804800  1
  C  521  1  0.69295800  0.32997600  0.65836550  1
  C  529  1  0.63927500  0.54826350  0.41401650  1
  C  530  1  0.58911100  0.54749750  0.42576700  1
  C  531  1  0.59293600  0.53667650  0.43719400  1
  C  532  1  0.64812100  0.52603700  0.43703300  1
  C  533  1  0.69856500  0.52608700  0.42549850  1
  C  534  1  0.69327300  0.53707400  0.41418800  1
  C  538  1  0.63521300  0.55980950  0.40259600  1
  C  539  1  0.57095500  0.56764650  0.39899100  1
  C  540  1  0.56873900  0.57991900  0.38902250  1
  C  541  1  0.63116600  0.58317300  0.38116100  1
  C  542  1  0.69384000  0.57513250  0.38343700  1
  C  543  1  0.69680600  0.56407900  0.39453550  1
  C  551  1  0.63715100  0.42187150  0.06098000  1
  C  552  1  0.58746500  0.42252600  0.04903100  1
  C  553  1  0.59161900  0.43318300  0.03746800  1
  C  554  1  0.64652300  0.44377450  0.03771900  1
  C  555  1  0.69639600  0.44386100  0.04947000  1
  C  556  1  0.69078400  0.43302600  0.06090500  1
  C  560  1  0.63321100  0.41041300  0.07246700  1
  C  561  1  0.56905300  0.40271650  0.07604200  1
  C  562  1  0.56713100  0.39050050  0.08608500  1
  C  563  1  0.62982100  0.38719200  0.09402300  1
  C  564  1  0.69247300  0.39506100  0.09172300  1
  C  565  1  0.69507400  0.40605800  0.08058100  1
  C  573  1  0.63988900  0.30861700  0.30020000  1
  C  574  1  0.58997000  0.29681800  0.29942900  1
  C  575  1  0.59387100  0.28531650  0.28868850  1
  C  576  1  0.64880600  0.28550350  0.27810700  1
  C  577  1  0.69904400  0.29708100  0.27815350  1
  C  578  1  0.69366500  0.30844400  0.28907500  1
  C  582  1  0.63587500  0.32007200  0.31170700  1
  C  583  1  0.57175700  0.32367100  0.31947100  1
  C  584  1  0.56974200  0.33366450  0.33172600  1
  C  585  1  0.63219400  0.34156100  0.33500900  1
  C  586  1  0.69475400  0.33925800  0.32707000  1
  C  587  1  0.69752700  0.32814400  0.31603850  1
  C  595  1  0.63804900  0.66113000  0.17344650  1
  C  596  1  0.58819500  0.67304850  0.17395250  1
  C  597  1  0.59172300  0.68458200  0.18465950  1
  C  598  1  0.64628000  0.68431450  0.19544900  1
  C  599  1  0.69625800  0.67258200  0.19569550  1
  C  600  1  0.69128200  0.66119400  0.18478700  1
  C  604  1  0.63457200  0.64966400  0.16196700  1
  C  605  1  0.57051500  0.64600800  0.15414950  1
  C  606  1  0.56888900  0.63596400  0.14193300  1
  C  607  1  0.63180200  0.62811450  0.13873500  1
  C  608  1  0.69439900  0.63049800  0.14673400  1
  C  609  1  0.69667700  0.64163400  0.15774400  1
  C  617  1  0.10947600  0.54831200  0.06239400  1
  C  618  1  0.15813800  0.54751700  0.05040200  1
  C  619  1  0.15432200  0.53636350  0.03931300  1
  C  620  1  0.10125200  0.52538800  0.04024300  1
  C  621  1  0.05107200  0.52565700  0.05191300  1
  C  622  1  0.05654300  0.53704200  0.06279000  1
  C  626  1  0.11533600  0.55958550  0.07396800  1
  C  627  1  0.18087500  0.56644100  0.07802700  1
  C  628  1  0.18623400  0.57724400  0.08952300  1
  C  629  1  0.12399900  0.58118950  0.09719600  1
  C  630  1  0.05848800  0.57494800  0.09346300  1
  C  631  1  0.05421200  0.56440650  0.08185300  1
  C  639  1  0.11051700  0.42080700  0.41198100  1
  C  640  1  0.15926400  0.42133950  0.42406700  1
  C  641  1  0.15531300  0.43231750  0.43532700  1
  C  642  1  0.10213500  0.44339350  0.43447050  1
  C  643  1  0.05194200  0.44339050  0.42269850  1
  C  644  1  0.05747000  0.43216800  0.41165600  1
  C  648  1  0.11626200  0.40967200  0.40027700  1
  C  649  1  0.18182900  0.40280500  0.39616900  1
  C  650  1  0.18702800  0.39212350  0.38455700  1
  C  651  1  0.12458300  0.38831800  0.37682250  1
  C  652  1  0.05905400  0.39458350  0.38059300  1
  C  653  1  0.05495300  0.40500300  0.39231450  1
  C  661  1  0.11182500  0.31061400  0.17375900  1
  C  662  1  0.16066900  0.29854750  0.17443050  1
  C  663  1  0.15676100  0.28729000  0.18541150  1
  C  664  1  0.10350800  0.28815350  0.19636000  1
  C  665  1  0.05323200  0.29990950  0.19623550  1
  C  666  1  0.05876800  0.31094000  0.18501100  1
  C  670  1  0.11742600  0.32228050  0.16258450  1
  C  671  1  0.18281400  0.32635950  0.15575300  1
  C  672  1  0.18775500  0.33793950  0.14503500  1
  C  673  1  0.12519200  0.34565500  0.14114350  1
  C  674  1  0.05982300  0.34189750  0.14735200  1
  C  675  1  0.05600400  0.33021600  0.15781050  1
  C  683  1  0.10658500  0.65941900  0.30138700  1
  C  684  1  0.15521800  0.67142050  0.30077500  1
  C  685  1  0.15182300  0.68252900  0.28962800  1
  C  686  1  0.09905900  0.68158350  0.27847600  1
  C  687  1  0.04886300  0.66991500  0.27855900  1
  C  688  1  0.05392300  0.65903400  0.28995700  1
  C  692  1  0.11234300  0.64781550  0.31263600  1
  C  693  1  0.17790900  0.64373200  0.31959400  1
  C  694  1  0.18328300  0.63222700  0.33039050  1
  C  695  1  0.12107200  0.62455000  0.33421150  1
  C  696  1  0.05553600  0.62829600  0.32784800  1
  C  697  1  0.05121000  0.63992700  0.31731800  1
  C  705  1  0.85132700  0.86512050  0.14035800  1
  C  706  1  0.92561700  0.86690200  0.14233600  1
  C  707  1  0.96160700  0.87739400  0.13301950  1
  C  708  1  0.92193500  0.88532000  0.12189650  1
  C  711  1  0.03484900  0.87991200  0.13568250  1
  C  712  1  0.07284600  0.87173700  0.14644150  1
  C  713  1  0.03823300  0.86098550  0.15502200  1
  C  714  1  0.96531400  0.85869150  0.15309200  1
  C  719  1  0.80837800  0.85469400  0.14773100  1
  C  721  1  0.94848700  0.89365500  0.10985900  1
  C  723  1  0.84843500  0.10458300  0.33380600  1
  C  724  1  0.92277300  0.10284300  0.33188300  1
  C  725  1  0.95963700  0.09235450  0.34121000  1
  C  726  1  0.92073100  0.08439800  0.35229000  1
  C  729  1  0.03293600  0.08987000  0.33859050  1
  C  730  1  0.07014000  0.09807750  0.32787200  1
  C  731  1  0.03466000  0.10883450  0.31929100  1
  C  732  1  0.96167800  0.11109600  0.32117400  1
  C  737  1  0.80469100  0.11500650  0.32642400  1
  C  739  1  0.94809000  0.07611300  0.36437500  1
  C  741  1  0.84988700  0.08180900  0.11786100  1
  C  742  1  0.92427900  0.07984900  0.11962900  1
  C  743  1  0.96071400  0.08915050  0.13014000  1
  C  744  1  0.92131600  0.10024600  0.13808200  1
  C  747  1  0.03409300  0.08650200  0.13264800  1
  C  748  1  0.07174000  0.07576100  0.12445650  1
  C  749  1  0.03668200  0.06720900  0.11367400  1
  C  750  1  0.96364600  0.06912650  0.11138700  1
  C  755  1  0.80648700  0.07446800  0.10740700  1
  C  757  1  0.94814300  0.11226300  0.14645000  1
  C  759  1  0.84775700  0.88838400  0.35715100  1
  C  760  1  0.92199100  0.89033100  0.35539400  1
  C  761  1  0.95846300  0.88093800  0.34497800  1
  C  762  1  0.91930100  0.86977150  0.33712000  1
  C  765  1  0.03161700  0.88356600  0.34247100  1
  C  766  1  0.06909100  0.89437000  0.35058900  1
  C  767  1  0.03402900  0.90302500  0.36127500  1
  C  768  1  0.96117300  0.90112700  0.36355350  1
  C  773  1  0.80440500  0.89583200  0.36751150  1
  C  775  1  0.94639500  0.85768800  0.32885800  1
  C  777  1  0.90278600  0.10485300  0.83717800  1
  C  778  1  0.82877700  0.10233000  0.83570600  1
  C  779  1  0.79664300  0.09147500  0.84524300  1
  C  780  1  0.83945000  0.08409900  0.85625200  1
  C  783  1  0.72409700  0.08802500  0.84281550  1
  C  784  1  0.68288400  0.09571650  0.83222300  1
  C  785  1  0.71356700  0.10690400  0.82353200  1
  C  786  1  0.78589900  0.11005700  0.82513200  1
  C  791  1  0.94260500  0.11541000  0.82921400  1
  C  793  1  0.81646000  0.07539800  0.86837900  1
  C  795  1  0.90019600  0.86514900  0.63744450  1
  C  796  1  0.82608100  0.86760300  0.63890200  1
  C  797  1  0.79288000  0.87848650  0.62941400  1
  C  798  1  0.83479900  0.88595300  0.61846400  1
  C  801  1  0.72021700  0.88187100  0.63184450  1
  C  802  1  0.67991000  0.87408550  0.64237500  1
  C  803  1  0.71164200  0.86286500  0.65100450  1
  C  804  1  0.78410900  0.85977500  0.64940950  1
  C  809  1  0.94100100  0.85458100  0.64536400  1
  C  811  1  0.81082500  0.89466900  0.60634850  1
  C  813  1  0.89414500  0.88766800  0.86027900  1
  C  814  1  0.81949800  0.88915500  0.85859500  1
  C  815  1  0.78446400  0.88010700  0.84764400  1
  C  816  1  0.82540600  0.86957000  0.83928250  1
  C  819  1  0.71087900  0.88250900  0.84515850  1
  C  820  1  0.67177500  0.89266600  0.85377800  1
  C  821  1  0.70551700  0.90088500  0.86499900  1
  C  822  1  0.77870700  0.89926700  0.86727700  1
  C  827  1  0.93691400  0.89513600  0.87077600  1
  C  829  1  0.80063900  0.85782200  0.83025100  1
  C  831  1  0.88971400  0.08210600  0.61408550  1
  C  832  1  0.81525000  0.08057200  0.61579250  1
  C  833  1  0.78026400  0.08959650  0.62675550  1
  C  834  1  0.82100500  0.10016000  0.63510250  1
  C  837  1  0.70695900  0.08715500  0.62926400  1
  C  838  1  0.66798300  0.07698550  0.62064800  1
  C  839  1  0.70162600  0.06877750  0.60942350  1
  C  840  1  0.77459400  0.07043700  0.60712300  1
  C  845  1  0.93239100  0.07464100  0.60359700  1
  C  847  1  0.79600800  0.11190400  0.64412950  1
  C  849  1  0.85624800  0.36162700  0.63995800  1
  C  850  1  0.93077500  0.36335450  0.64148750  1
  C  851  1  0.96526100  0.37433200  0.63246500  1
  C  852  1  0.92397500  0.38268700  0.62191500  1
  C  855  1  0.03867300  0.37685500  0.63490200  1
  C  856  1  0.07818900  0.36824400  0.64506550  1
  C  857  1  0.04500300  0.35700950  0.65327250  1
  C  858  1  0.97196700  0.35469050  0.65161700  1
  C  863  1  0.81400000  0.35111700  0.64741700  1
  C  865  1  0.94837900  0.39171800  0.61016350  1
  C  867  1  0.85796700  0.60779750  0.83447150  1
  C  868  1  0.93256900  0.60616650  0.83298250  1
  C  869  1  0.96816400  0.59520400  0.84199200  1
  C  870  1  0.92782000  0.58676700  0.85248650  1
  C  873  1  0.04168300  0.59278000  0.83959400  1
  C  874  1  0.08023000  0.60147650  0.82948950  1
  C  875  1  0.04594500  0.61269750  0.82130000  1
  C  876  1  0.97279100  0.61492000  0.82291500  1
  C  881  1  0.81472900  0.61830000  0.82704600  1
  C  883  1  0.95323500  0.57777400  0.86426100  1
  C  885  1  0.84393900  0.58505400  0.61736300  1
  C  886  1  0.91798500  0.58354100  0.61997250  1
  C  887  1  0.95037800  0.59298600  0.63094000  1
  C  888  1  0.90778300  0.60396700  0.63832050  1
  C  891  1  0.02293100  0.59048950  0.63448850  1
  C  892  1  0.06390200  0.57992200  0.62679100  1
  C  893  1  0.03300000  0.57134450  0.61547900  1
  C  894  1  0.96064000  0.57300400  0.61223000  1
  C  899  1  0.80384400  0.57716550  0.60671250  1
  C  901  1  0.93100900  0.61600950  0.64715200  1
  C  903  1  0.84818700  0.38496300  0.85752900  1
  C  904  1  0.92207900  0.38646350  0.85495900  1
  C  905  1  0.95454100  0.37697800  0.84404350  1
  C  906  1  0.91221900  0.36596850  0.83668000  1
  C  909  1  0.02686600  0.37945850  0.84053200  1
  C  910  1  0.06762800  0.39004150  0.84822500  1
  C  911  1  0.03668300  0.39867050  0.85947800  1
  C  912  1  0.96450900  0.39702650  0.86268850  1
  C  917  1  0.80806500  0.39291250  0.86810850  1
  C  919  1  0.93568500  0.35389850  0.82789000  1
  C  921  1  0.89209700  0.60847350  0.33833350  1
  C  922  1  0.81803300  0.60586650  0.33723850  1
  C  923  1  0.78774500  0.59446050  0.34641500  1
  C  924  1  0.83217500  0.58675850  0.35691150  1
  C  927  1  0.71539500  0.59081250  0.34406200  1
  C  928  1  0.67250300  0.59885300  0.33403550  1
  C  929  1  0.70131300  0.61060700  0.32581500  1
  C  930  1  0.77352100  0.61394950  0.32725150  1
  C  935  1  0.93095300  0.61913300  0.33026450  1
  C  937  1  0.81163000  0.57729600  0.36867950  1
  C  939  1  0.89494500  0.36164400  0.13676000  1
  C  940  1  0.82076100  0.36418950  0.13785400  1
  C  941  1  0.78932600  0.37557850  0.12868700  1
  C  942  1  0.83278100  0.38330800  0.11818900  1
  C  945  1  0.71687200  0.37918100  0.13105500  1
  C  946  1  0.67496100  0.37110800  0.14107900  1
  C  947  1  0.70488600  0.35936000  0.14927900  1
  C  948  1  0.77722300  0.35606300  0.14783250  1
  C  953  1  0.93481900  0.35100600  0.14482000  1
  C  955  1  0.81105500  0.39270750  0.10638900  1
  C  957  1  0.89481500  0.38416400  0.36069450  1
  C  958  1  0.82063400  0.38528200  0.35808650  1
  C  959  1  0.78978900  0.37614300  0.34665400  1
  C  960  1  0.83383800  0.36565200  0.33894100  1
  C  963  1  0.71730400  0.37853200  0.34299550  1
  C  964  1  0.67485500  0.38856750  0.35103900  1
  C  965  1  0.70420000  0.39673300  0.36283200  1
  C  966  1  0.77654000  0.39526250  0.36618550  1
  C  971  1  0.93416000  0.39217650  0.37139550  1
  C  973  1  0.81280600  0.35392150  0.32944600  1
  C  975  1  0.89486500  0.58555700  0.11333000  1
  C  976  1  0.82093300  0.58440900  0.11601400  1
  C  977  1  0.79036400  0.59355250  0.12746150  1
  C  978  1  0.83431200  0.60408750  0.13510300  1
  C  981  1  0.71828900  0.59113150  0.13120600  1
  C  982  1  0.67583200  0.58107300  0.12321700  1
  C  983  1  0.70483100  0.57289350  0.11141300  1
  C  984  1  0.77684200  0.57439300  0.10797800  1
  C  989  1  0.93396400  0.57749500  0.10264600  1
  C  991  1  0.81320300  0.61583200  0.14458800  1
  C  993  1  0.30146600  0.85779000  0.09778400  1
  C  994  1  0.30351700  0.84343300  0.10477300  1
  C  995  1  0.36394300  0.83937600  0.11375000  1
  C  996  1  0.42045800  0.84976450  0.11518150  1
  C  999  1  0.36541700  0.82509100  0.12060900  1
  C  1000  1  0.30959700  0.81497100  0.11879200  1
  C  1001  1  0.25110200  0.81883000  0.10994400  1
  C  1002  1  0.24821000  0.83285100  0.10300600  1
  C  1007  1  0.24106000  0.86433500  0.09108400  1
  C  1009  1  0.48380400  0.84878800  0.12360900  1
  C  1011  1  0.30068100  0.11138650  0.37618300  1
  C  1012  1  0.30151500  0.12581100  0.36931850  1
  C  1013  1  0.36075100  0.12991300  0.36018850  1
  C  1014  1  0.41747800  0.11951700  0.35849300  1
  C  1017  1  0.36093500  0.14424700  0.35343300  1
  C  1018  1  0.30505600  0.15439300  0.35552400  1
  C  1019  1  0.24779000  0.15050500  0.36453900  1
  C  1020  1  0.24612800  0.13642200  0.37135500  1
  C  1025  1  0.24123800  0.10484200  0.38303350  1
  C  1027  1  0.48008200  0.12058550  0.34996450  1
  C  1029  1  0.29982000  0.12424600  0.11098100  1
  C  1030  1  0.30096900  0.11733150  0.09658200  1
  C  1031  1  0.36091400  0.10829200  0.09246800  1
  C  1032  1  0.41794100  0.10673100  0.10283100  1
  C  1035  1  0.36145000  0.10149600  0.07815300  1
  C  1036  1  0.30521600  0.10345200  0.06804400  1
  C  1037  1  0.24721500  0.11237050  0.07195000  1
  C  1038  1  0.24521200  0.11923200  0.08601100  1
  C  1043  1  0.23993700  0.13101700  0.11755100  1
  C  1045  1  0.48112000  0.09826650  0.10177100  1
  C  1047  1  0.30006800  0.84595450  0.36462500  1
  C  1048  1  0.30181100  0.85299000  0.37896100  1
  C  1049  1  0.36142300  0.86212500  0.38292350  1
  C  1050  1  0.41754000  0.86366200  0.37247100  1
  C  1053  1  0.36255100  0.86903750  0.39718150  1
  C  1054  1  0.30721300  0.86710750  0.40737550  1
  C  1055  1  0.24956600  0.85809250  0.40361800  1
  C  1056  1  0.24698100  0.85111800  0.38961500  1
  C  1061  1  0.24014800  0.83909200  0.35817250  1
  C  1063  1  0.48022400  0.87219000  0.37338000  1
  C  1065  1  0.45559700  0.10999850  0.87394700  1
  C  1066  1  0.45442000  0.12446000  0.86716500  1
  C  1067  1  0.39399200  0.12882300  0.85833050  1
  C  1068  1  0.33682000  0.11861200  0.85680900  1
  C  1071  1  0.39319700  0.14320100  0.85167100  1
  C  1072  1  0.44967500  0.15314200  0.85356900  1
  C  1073  1  0.50822700  0.14898650  0.86226700  1
  C  1074  1  0.51050000  0.13485100  0.86898450  1
  C  1079  1  0.51478900  0.10326700  0.88091550  1
  C  1081  1  0.27273200  0.11995800  0.84870800  1
  C  1083  1  0.45071300  0.86069450  0.60059050  1
  C  1084  1  0.45062600  0.84612750  0.60715250  1
  C  1085  1  0.39131500  0.84168200  0.61609550  1
  C  1086  1  0.33402300  0.85190950  0.61793450  1
  C  1089  1  0.39164100  0.82720700  0.62254300  1
  C  1090  1  0.44811800  0.81724000  0.62032100  1
  C  1091  1  0.50554300  0.82146950  0.61150550  1
  C  1092  1  0.50672900  0.83570700  0.60500800  1
  C  1097  1  0.50901700  0.86746600  0.59356050  1
  C  1099  1  0.27073000  0.85045600  0.62614750  1
  C  1101  1  0.44487100  0.84682650  0.86276600  1
  C  1102  1  0.44378600  0.85373600  0.87716500  1
  C  1103  1  0.38534800  0.86330650  0.88103250  1
  C  1104  1  0.32943300  0.86529850  0.87045150  1
  C  1107  1  0.38502500  0.87009300  0.89536300  1
  C  1108  1  0.43994400  0.86765350  0.90568500  1
  C  1109  1  0.49638900  0.85821500  0.90201000  1
  C  1110  1  0.49815900  0.85133050  0.88796350  1
  C  1115  1  0.50408500  0.83954400  0.85648200  1
  C  1117  1  0.26716100  0.87406300  0.87142650  1
  C  1119  1  0.43844000  0.12293200  0.61145900  1
  C  1120  1  0.43692600  0.11599300  0.59707400  1
  C  1121  1  0.37884900  0.10637700  0.59325600  1
  C  1122  1  0.32368500  0.10436750  0.60386850  1
  C  1125  1  0.37812300  0.09956000  0.57894000  1
  C  1126  1  0.43229000  0.10201400  0.56858600  1
  C  1127  1  0.48833800  0.11150550  0.57221100  1
  C  1128  1  0.49051100  0.11841600  0.58624500  1
  C  1133  1  0.49762400  0.13024200  0.61770750  1
  C  1135  1  0.26183100  0.09558000  0.60293000  1
  C  1137  1  0.30538600  0.35894700  0.59910950  1
  C  1138  1  0.30719600  0.34457050  0.60606400  1
  C  1139  1  0.36595300  0.34072500  0.61560600  1
  C  1140  1  0.42140100  0.35130900  0.61753400  1
  C  1143  1  0.36699400  0.32641600  0.62243700  1
  C  1144  1  0.31247200  0.31609600  0.62007200  1
  C  1145  1  0.25572400  0.31975250  0.61066100  1
  C  1146  1  0.25326300  0.33377400  0.60372700  1
  C  1151  1  0.24577900  0.36522500  0.59185900  1
  C  1153  1  0.48383600  0.35035600  0.62626300  1
  C  1155  1  0.30950100  0.61012700  0.87543550  1
  C  1156  1  0.31026400  0.62458100  0.86863600  1
  C  1157  1  0.36801700  0.62849500  0.85901800  1
  C  1158  1  0.42366800  0.61790850  0.85686900  1
  C  1161  1  0.36797000  0.64287250  0.85233250  1
  C  1162  1  0.31337900  0.65320650  0.85492800  1
  C  1163  1  0.25765800  0.64949200  0.86442400  1
  C  1164  1  0.25623400  0.63539300  0.87120100  1
  C  1169  1  0.25070900  0.60381800  0.88273300  1
  C  1171  1  0.48539300  0.61894350  0.84806100  1
  C  1173  1  0.29074700  0.62138550  0.61289900  1
  C  1174  1  0.29086300  0.61469300  0.59839100  1
  C  1175  1  0.35101000  0.60590450  0.59389000  1
  C  1176  1  0.40901200  0.60434100  0.60400400  1
  C  1179  1  0.35074400  0.59933100  0.57947300  1
  C  1180  1  0.29350100  0.60127600  0.56961700  1
  C  1181  1  0.23522100  0.60993100  0.57390300  1
  C  1182  1  0.23397300  0.61655300  0.58808400  1
  C  1187  1  0.23207100  0.62833600  0.61973050  1
  C  1189  1  0.47311000  0.59628900  0.60250200  1
  C  1191  1  0.29737100  0.34850950  0.86206250  1
  C  1192  1  0.29806500  0.35518100  0.87657850  1
  C  1193  1  0.35767800  0.36411350  0.88098800  1
  C  1194  1  0.41463300  0.36583550  0.87077500  1
  C  1197  1  0.35795400  0.37066900  0.89541350  1
  C  1198  1  0.30177800  0.36856500  0.90536450  1
  C  1199  1  0.24407100  0.35975750  0.90117300  1
  C  1200  1  0.24228700  0.35315400  0.88698300  1
  C  1205  1  0.23874300  0.34146550  0.85531000  1
  C  1207  1  0.47812300  0.37400600  0.87219800  1
  C  1209  1  0.44602400  0.60838250  0.37281650  1
  C  1210  1  0.44505700  0.62285850  0.36606350  1
  C  1211  1  0.38565400  0.62709450  0.35686950  1
  C  1212  1  0.32903500  0.61677000  0.35505800  1
  C  1215  1  0.38515600  0.64151100  0.35026650  1
  C  1216  1  0.44086700  0.65156800  0.35251300  1
  C  1217  1  0.49838700  0.64752050  0.36154700  1
  C  1218  1  0.50035600  0.63338100  0.36824450  1
  C  1223  1  0.50463600  0.60184500  0.38017050  1
  C  1225  1  0.26537100  0.61816250  0.34681900  1
  C  1227  1  0.44642700  0.36209950  0.10242500  1
  C  1228  1  0.44668200  0.34756900  0.10907300  1
  C  1229  1  0.38854100  0.34330300  0.11843400  1
  C  1230  1  0.33175700  0.35363350  0.12049600  1
  C  1233  1  0.38936300  0.32885400  0.12496550  1
  C  1234  1  0.44508800  0.31877300  0.12245700  1
  C  1235  1  0.50129400  0.32283300  0.11323600  1
  C  1236  1  0.50200900  0.33701850  0.10663100  1
  C  1241  1  0.50401600  0.36863850  0.09493100  1
  C  1243  1  0.26887700  0.35216900  0.12884600  1
  C  1245  1  0.44840100  0.34983250  0.36024400  1
  C  1246  1  0.44830100  0.35646200  0.37478050  1
  C  1247  1  0.38934500  0.36568800  0.37910400  1
  C  1248  1  0.33220600  0.36764150  0.36881500  1
  C  1251  1  0.38975900  0.37218400  0.39356750  1
  C  1252  1  0.44589300  0.36978250  0.40360200  1
  C  1253  1  0.50294100  0.36070450  0.39948000  1
  C  1254  1  0.50404800  0.35412750  0.38528200  1
  C  1259  1  0.50652600  0.34245650  0.35365150  1
  C  1261  1  0.26872800  0.37591000  0.37030750  1
  C  1263  1  0.44734300  0.61955100  0.11349100  1
  C  1264  1  0.44693100  0.61276000  0.09903100  1
  C  1265  1  0.38809800  0.60352950  0.09478400  1
  C  1266  1  0.33141300  0.60172700  0.10507200  1
  C  1269  1  0.38820100  0.59687100  0.08039500  1
  C  1270  1  0.44391200  0.59911400  0.07036300  1
  C  1271  1  0.50082900  0.60819800  0.07441100  1
  C  1272  1  0.50224900  0.61493100  0.08853500  1
  C  1277  1  0.50544000  0.62696150  0.12003650  1
  C  1279  1  0.26809200  0.59350600  0.10364000  1
  C  1281  1  0.15479900  0.91831100  0.99726400  1
  C  1282  1  0.16309400  0.90732350  0.98589300  1
  C  1283  1  0.18772900  0.91190800  0.97150000  1
  C  1284  1  0.20037700  0.92731700  0.96889600  1
  C  1287  1  0.20048300  0.90092100  0.96043650  1
  C  1288  1  0.18704500  0.88578000  0.96319900  1
  C  1289  1  0.16087900  0.88132200  0.97710300  1
  C  1290  1  0.14922200  0.89196300  0.98834200  1
  C  1295  1  0.13970000  0.91544500  0.01218100  1
  C  1297  1  0.23850800  0.93304300  0.95710600  1
  C  1299  1  0.15452900  0.05118600  0.47726000  1
  C  1300  1  0.16274900  0.06211800  0.48868950  1
  C  1301  1  0.18583800  0.05738900  0.50321800  1
  C  1302  1  0.19698600  0.04190950  0.50588850  1
  C  1305  1  0.19859600  0.06829600  0.51435650  1
  C  1306  1  0.18656300  0.08351000  0.51153500  1
  C  1307  1  0.16186400  0.08812050  0.49749100  1
  C  1308  1  0.15030200  0.07755300  0.48617600  1
  C  1313  1  0.14053700  0.05412800  0.46227000  1
  C  1315  1  0.23385700  0.03595600  0.51786050  1
  C  1317  1  0.15268500  0.22499850  0.17132000  1
  C  1318  1  0.16060000  0.23636400  0.16032700  1
  C  1319  1  0.18445000  0.25082700  0.16493850  1
  C  1320  1  0.19683900  0.25347900  0.18037650  1
  C  1323  1  0.19686000  0.26188250  0.15395300  1
  C  1324  1  0.18377200  0.25904900  0.13878450  1
  C  1325  1  0.15831100  0.24507900  0.13429500  1
  C  1326  1  0.14708100  0.23384300  0.14493550  1
  C  1331  1  0.13826500  0.21004200  0.16845150  1
  C  1333  1  0.23401600  0.26541600  0.18617300  1
  C  1335  1  0.15221900  0.74468150  0.30442800  1
  C  1336  1  0.16158900  0.73325850  0.31534650  1
  C  1337  1  0.18428000  0.71873200  0.31057400  1
  C  1338  1  0.19389800  0.71607350  0.29507250  1
  C  1341  1  0.19818900  0.70759900  0.32145250  1
  C  1342  1  0.18764500  0.71042350  0.33669100  1
  C  1343  1  0.16329600  0.72446150  0.34135100  1
  C  1344  1  0.15064600  0.73577200  0.33080700  1
  C  1349  1  0.13856100  0.75968000  0.30738200  1
  C  1351  1  0.23005800  0.70408200  0.28903600  1
  C  1353  1  0.58744300  0.92013300  0.47472600  1
  C  1354  1  0.58119300  0.90906500  0.48606650  1
  C  1355  1  0.55931600  0.91357800  0.50069850  1
  C  1356  1  0.54724800  0.92899200  0.50353950  1
  C  1359  1  0.54858500  0.90252150  0.51176600  1
  C  1360  1  0.56137300  0.88737500  0.50876000  1
  C  1361  1  0.58484000  0.88298000  0.49460500  1
  C  1362  1  0.59445100  0.89369400  0.48336800  1
  C  1367  1  0.59980000  0.91738550  0.45966300  1
  C  1369  1  0.51128300  0.93471800  0.51566600  1
  C  1371  1  0.58903700  0.05080050  0.99979800  1
  C  1372  1  0.58254900  0.06182550  0.98839500  1
  C  1373  1  0.56189500  0.05723600  0.97367600  1
  C  1374  1  0.55131300  0.04179500  0.97082050  1
  C  1377  1  0.55088100  0.06824100  0.96252650  1
  C  1378  1  0.56227100  0.08341450  0.96554200  1
  C  1379  1  0.58456700  0.08788750  0.97979000  1
  C  1380  1  0.59438200  0.07722350  0.99110550  1
  C  1385  1  0.60067400  0.05358950  0.01490300  1
  C  1387  1  0.51653700  0.03596650  0.95855100  1
  C  1389  1  0.58767900  0.22268000  0.30251000  1
  C  1390  1  0.58212800  0.23411700  0.31351150  1
  C  1391  1  0.56129400  0.24883850  0.30891400  1
  C  1392  1  0.54936100  0.25163800  0.29348100  1
  C  1395  1  0.55130200  0.26002000  0.31990750  1
  C  1396  1  0.56382100  0.25703200  0.33507150  1
  C  1397  1  0.58627000  0.24278150  0.33954900  1
  C  1398  1  0.59510200  0.23143500  0.32890000  1
  C  1403  1  0.59928600  0.20757050  0.30532900  1
  C  1405  1  0.51422300  0.26392350  0.28769450  1
  C  1407  1  0.59220500  0.74727350  0.17131800  1
  C  1408  1  0.58725800  0.73592600  0.16021150  1
  C  1409  1  0.56481400  0.72129650  0.16456000  1
  C  1410  1  0.55080500  0.71848300  0.17987700  1
  C  1413  1  0.55543900  0.71022250  0.15343300  1
  C  1414  1  0.57005500  0.71322600  0.13838850  1
  C  1415  1  0.59404800  0.72737850  0.13416800  1
  C  1416  1  0.60236300  0.73861900  0.14494650  1
  C  1421  1  0.60483500  0.76233800  0.16865300  1
  C  1423  1  0.51381500  0.70639200  0.18532400  1
  C  1425  1  0.59651600  0.74551050  0.80366800  1
  C  1426  1  0.59030900  0.73415850  0.81472550  1
  C  1427  1  0.56617500  0.71966600  0.81028000  1
  C  1428  1  0.55190100  0.71695100  0.79492450  1
  C  1431  1  0.55550000  0.70861350  0.82135400  1
  C  1432  1  0.57048400  0.71148850  0.83643900  1
  C  1433  1  0.59616100  0.72549500  0.84075450  1
  C  1434  1  0.60578500  0.73672050  0.83003000  1
  C  1439  1  0.61095700  0.76048350  0.80642850  1
  C  1441  1  0.51361400  0.70505550  0.78937800  1
  C  1443  1  0.59163800  0.22451350  0.67063400  1
  C  1444  1  0.58357900  0.23593800  0.65967350  1
  C  1445  1  0.56091300  0.25049750  0.66434650  1
  C  1446  1  0.55001300  0.25320400  0.67980400  1
  C  1449  1  0.54830700  0.26163800  0.65340500  1
  C  1450  1  0.56007600  0.25878150  0.63821350  1
  C  1451  1  0.58436100  0.24470400  0.63366000  1
  C  1452  1  0.59577200  0.23339200  0.64425950  1
  C  1457  1  0.60525300  0.20950300  0.66773900  1
  C  1459  1  0.51341400  0.26521550  0.68567950  1
  C  1461  1  0.15700300  0.74763050  0.67190600  1
  C  1462  1  0.16237500  0.73620600  0.66088700  1
  C  1463  1  0.18363500  0.72149950  0.66544450  1
  C  1464  1  0.19609700  0.71870200  0.68085900  1
  C  1467  1  0.19351200  0.71033500  0.65442950  1
  C  1468  1  0.18041900  0.71331900  0.63928400  1
  C  1469  1  0.15750200  0.72755000  0.63485000  1
  C  1470  1  0.14880800  0.73888200  0.64551950  1
  C  1475  1  0.14505300  0.76272900  0.66910800  1
  C  1477  1  0.23131500  0.70640650  0.68659800  1
  C  1479  1  0.15725600  0.22215300  0.80267450  1
  C  1480  1  0.16322200  0.23346750  0.81379300  1
  C  1481  1  0.18558800  0.24808950  0.80940400  1
  C  1482  1  0.19844400  0.25092750  0.79404600  1
  C  1485  1  0.19603800  0.25912700  0.82052500  1
  C  1486  1  0.18250500  0.25610300  0.83561050  1
  C  1487  1  0.15853400  0.24196300  0.83987900  1
  C  1488  1  0.14919900  0.23075500  0.82910300  1
  C  1493  1  0.14455500  0.20709650  0.80535400  1
  C  1495  1  0.23476600  0.26305900  0.78849550  1
  C  1497  1  0.15135600  0.41825100  0.49775900  1
  C  1498  1  0.15906400  0.40723600  0.48639400  1
  C  1499  1  0.18253000  0.41179600  0.47190150  1
  C  1500  1  0.19461500  0.42720900  0.46919550  1
  C  1503  1  0.19474600  0.40078300  0.46083900  1
  C  1504  1  0.18187700  0.38563800  0.46369900  1
  C  1505  1  0.15682800  0.38120100  0.47770250  1
  C  1506  1  0.14573700  0.39186900  0.48894050  1
  C  1511  1  0.13732100  0.41542300  0.51273550  1
  C  1513  1  0.23204400  0.43293150  0.45729750  1
  C  1515  1  0.15665400  0.55082150  0.97690300  1
  C  1516  1  0.16557900  0.56176700  0.98829800  1
  C  1517  1  0.18747000  0.55700000  0.00289700  1
  C  1518  1  0.19671700  0.54148700  0.00567400  1
  C  1521  1  0.20098500  0.56789700  0.01400700  1
  C  1522  1  0.19082700  0.58315050  0.01108700  1
  C  1523  1  0.16727900  0.58781000  0.99697300  1
  C  1524  1  0.15501200  0.57724700  0.98568850  1
  C  1529  1  0.14363500  0.55374900  0.96186600  1
  C  1531  1  0.23256800  0.53542300  0.01773100  1
  C  1533  1  0.59290400  0.41994150  0.97470250  1
  C  1534  1  0.58789300  0.40886600  0.98607100  1
  C  1535  1  0.56524000  0.41328000  0.00068250  1
  C  1536  1  0.55099800  0.42862600  0.00345800  1
  C  1539  1  0.55575700  0.40218350  0.01176500  1
  C  1540  1  0.57050200  0.38710750  0.00879700  1
  C  1541  1  0.59473900  0.38282050  0.99466800  1
  C  1542  1  0.60313700  0.39356650  0.98341500  1
  C  1547  1  0.60577500  0.41721150  0.95965200  1
  C  1549  1  0.51411100  0.43414450  0.01556700  1
  C  1551  1  0.58824800  0.55042900  0.49976350  1
  C  1552  1  0.58175700  0.56145950  0.48836300  1
  C  1553  1  0.56055000  0.55689900  0.47366900  1
  C  1554  1  0.54934500  0.54147300  0.47085150  1
  C  1557  1  0.54958100  0.56791400  0.46252800  1
  C  1558  1  0.56149000  0.58307300  0.46552750  1
  C  1559  1  0.58431500  0.58751850  0.47974600  1
  C  1560  1  0.59413500  0.57684250  0.49105100  1
  C  1565  1  0.60015500  0.55322100  0.51486200  1
  C  1567  1  0.51382200  0.53571250  0.45863700  1
  C  1569  1  0.91147500  0.97120800  0.06498600  1
  C  1570  1  0.89400100  0.98066000  0.07722000  1
  C  1571  1  0.85319700  0.99392900  0.07445000  1
  C  1572  1  0.83053600  0.99702400  0.05958000  1
  C  1575  1  0.83838800  0.00365950  0.08654500  1
  C  1576  1  0.86176700  0.00034350  0.10107400  1
  C  1577  1  0.90108900  0.98731300  0.10380100  1
  C  1578  1  0.91737300  0.97760900  0.09199100  1
  C  1583  1  0.94933500  0.95791800  0.06599200  1
  C  1585  1  0.79405300  0.00954300  0.05462700  1
  C  1587  1  0.91128100  0.99882900  0.40938000  1
  C  1588  1  0.89296600  0.98932800  0.39722900  1
  C  1589  1  0.85190500  0.97621800  0.40011100  1
  C  1590  1  0.82979700  0.97332300  0.41500600  1
  C  1593  1  0.83635100  0.96643100  0.38809700  1
  C  1594  1  0.85917400  0.96954550  0.37354400  1
  C  1595  1  0.89869500  0.98242400  0.37070800  1
  C  1596  1  0.91574400  0.99217600  0.38243500  1
  C  1601  1  0.94956700  0.01197850  0.40827100  1
  C  1603  1  0.79322500  0.96095900  0.42007400  1
  C  1605  1  0.91024600  0.15724650  0.22374400  1
  C  1606  1  0.89225700  0.14502750  0.23313900  1
  C  1607  1  0.85114500  0.14783150  0.24627600  1
  C  1608  1  0.82876400  0.16272350  0.24931350  1
  C  1611  1  0.83586400  0.13574800  0.25595600  1
  C  1612  1  0.85904500  0.12119950  0.25271150  1
  C  1613  1  0.89862500  0.11843900  0.23980700  1
  C  1614  1  0.91539500  0.13023500  0.23015900  1
  C  1619  1  0.94843700  0.15620900  0.21057150  1
  C  1621  1  0.79196900  0.16771200  0.26170850  1
  C  1623  1  0.91137900  0.81272250  0.25140750  1
  C  1624  1  0.89273100  0.82492600  0.24196500  1
  C  1625  1  0.85257200  0.82206450  0.22864350  1
  C  1626  1  0.83171700  0.80713400  0.22548600  1
  C  1629  1  0.83664300  0.83413950  0.21892550  1
  C  1630  1  0.85822600  0.84872900  0.22230600  1
  C  1631  1  0.89688300  0.85154250  0.23538700  1
  C  1632  1  0.91429500  0.83975750  0.24507850  1
  C  1637  1  0.94895900  0.81378750  0.26472600  1
  C  1639  1  0.79600000  0.80209650  0.21293000  1
  C  1641  1  0.82236900  0.99576000  0.91798200  1
  C  1642  1  0.85765100  0.98965600  0.90532250  1
  C  1643  1  0.91689900  0.97979350  0.90760300  1
  C  1644  1  0.93779900  0.97618700  0.92249350  1
  C  1647  1  0.95358800  0.97430100  0.89492850  1
  C  1648  1  0.93195700  0.97803800  0.88038650  1
  C  1649  1  0.87372700  0.98753350  0.87816700  1
  C  1650  1  0.83730700  0.99336300  0.89049100  1
  C  1655  1  0.76365900  0.00522050  0.91730550  1
  C  1657  1  0.99475500  0.96724700  0.92690850  1
  C  1659  1  0.81752200  0.97417000  0.55701000  1
  C  1660  1  0.85397300  0.98019850  0.56960300  1
  C  1661  1  0.91289500  0.98997400  0.56721200  1
  C  1662  1  0.93238100  0.99357100  0.55228550  1
  C  1665  1  0.95072500  0.99538900  0.57981500  1
  C  1666  1  0.93052100  0.99166900  0.59439700  1
  C  1667  1  0.87263000  0.98226000  0.59672800  1
  C  1668  1  0.83511200  0.97650500  0.58447400  1
  C  1673  1  0.75894500  0.96479400  0.55779050  1
  C  1675  1  0.98887900  0.00241900  0.54776100  1
  C  1677  1  0.83708500  0.81331550  0.75090800  1
  C  1678  1  0.85561500  0.82558400  0.74162800  1
  C  1679  1  0.89557200  0.82278500  0.72833250  1
  C  1680  1  0.91626300  0.80784200  0.72503000  1
  C  1683  1  0.91141900  0.83493250  0.71877500  1
  C  1684  1  0.88993400  0.84953100  0.72228950  1
  C  1685  1  0.85148100  0.85228300  0.73534600  1
  C  1686  1  0.83414500  0.84042850  0.74487700  1
  C  1691  1  0.79967500  0.81431550  0.76418000  1
  C  1693  1  0.95212300  0.80286000  0.71251650  1
  C  1695  1  0.83356300  0.15647900  0.72345800  1
  C  1696  1  0.85184100  0.14434350  0.73301850  1
  C  1697  1  0.89214000  0.14728050  0.74630250  1
  C  1698  1  0.91346900  0.16221300  0.74930750  1
  C  1701  1  0.90771700  0.13528050  0.75613800  1
  C  1702  1  0.88566500  0.12068900  0.75290400  1
  C  1703  1  0.84686500  0.11780150  0.73985900  1
  C  1704  1  0.82978100  0.12951350  0.73005550  1
  C  1709  1  0.79568200  0.15534900  0.71018550  1
  C  1711  1  0.94958900  0.16732700  0.76177750  1
  C  1713  1  0.91054800  0.47120900  0.56565400  1
  C  1714  1  0.89269300  0.48068200  0.57784750  1
  C  1715  1  0.85248500  0.49401100  0.57497800  1
  C  1716  1  0.83081900  0.49714750  0.56005100  1
  C  1719  1  0.83728300  0.50375650  0.58703900  1
  C  1720  1  0.85965900  0.50039550  0.60162700  1
  C  1721  1  0.89839800  0.48731000  0.60444900  1
  C  1722  1  0.91509500  0.47759250  0.59267600  1
  C  1727  1  0.94820400  0.45789700  0.56672200  1
  C  1729  1  0.79480300  0.50968550  0.55499900  1
  C  1731  1  0.91578700  0.49847600  0.90878050  1
  C  1732  1  0.89740700  0.48893100  0.89666950  1
  C  1733  1  0.85696300  0.47575450  0.89963450  1
  C  1734  1  0.83554900  0.47283650  0.91457100  1
  C  1737  1  0.84132700  0.46593000  0.88765600  1
  C  1738  1  0.86345900  0.46907100  0.87305950  1
  C  1739  1  0.90238300  0.48201100  0.87014500  1
  C  1740  1  0.91952300  0.49180200  0.88183400  1
  C  1745  1  0.95383700  0.51165200  0.90761700  1
  C  1747  1  0.79944800  0.46044800  0.91972400  1
  C  1749  1  0.92442700  0.66479150  0.72634050  1
  C  1750  1  0.88583200  0.65237400  0.73198700  1
  C  1751  1  0.82801500  0.65501700  0.74202300  1
  C  1752  1  0.81159800  0.66998900  0.74621900  1
  C  1755  1  0.78805000  0.64263900  0.74707950  1
  C  1756  1  0.80511000  0.62800600  0.74276250  1
  C  1757  1  0.86187500  0.62541350  0.73309400  1
  C  1758  1  0.90140100  0.63746050  0.72767800  1
  C  1763  1  0.98205700  0.66377950  0.71669600  1
  C  1765  1  0.75640800  0.67476700  0.75535700  1
  C  1767  1  0.92880800  0.30470300  0.74843100  1
  C  1768  1  0.89174500  0.31724650  0.74238100  1
  C  1769  1  0.83309100  0.31477050  0.73243350  1
  C  1770  1  0.81444300  0.29981850  0.72870900  1
  C  1773  1  0.79465500  0.32731150  0.72698300  1
  C  1774  1  0.81401900  0.34192100  0.73083200  1
  C  1775  1  0.87162400  0.34433900  0.74041500  1
  C  1776  1  0.90971100  0.33214400  0.74621050  1
  C  1781  1  0.98711700  0.30555300  0.75799900  1
  C  1783  1  0.75826200  0.29521700  0.71970150  1
  C  1785  1  0.81828000  0.49554850  0.41702950  1
  C  1786  1  0.85478400  0.48947950  0.40450100  1
  C  1787  1  0.91320600  0.47945250  0.40700850  1
  C  1788  1  0.93214200  0.47567850  0.42196950  1
  C  1791  1  0.95113800  0.47396750  0.39449500  1
  C  1792  1  0.93151500  0.47787550  0.37987550  1
  C  1793  1  0.87413900  0.48754400  0.37742450  1
  C  1794  1  0.83655000  0.49336600  0.38959600  1
  C  1799  1  0.76030100  0.50520450  0.41616600  1
  C  1801  1  0.98840800  0.46666700  0.42658700  1
  C  1803  1  0.81869500  0.47379050  0.05818700  1
  C  1804  1  0.85735500  0.47963200  0.07058500  1
  C  1805  1  0.91512400  0.48962900  0.06788400  1
  C  1806  1  0.93137700  0.49359250  0.05287800  1
  C  1809  1  0.95518200  0.49489550  0.08024400  1
  C  1810  1  0.93827500  0.49080550  0.09491400  1
  C  1811  1  0.88158700  0.48116250  0.09756400  1
  C  1812  1  0.84193900  0.47555650  0.08553900  1
  C  1817  1  0.76112700  0.46415200  0.05922500  1
  C  1819  1  0.98684200  0.50255100  0.04806500  1
  C  1821  1  0.81932300  0.30559100  0.24792450  1
  C  1822  1  0.85622700  0.31809600  0.24198350  1
  C  1823  1  0.91453700  0.31555800  0.23205300  1
  C  1824  1  0.93305300  0.30058950  0.22825000  1
  C  1827  1  0.95285900  0.32804500  0.22670800  1
  C  1828  1  0.93372300  0.34267100  0.23065200  1
  C  1829  1  0.87645400  0.34515600  0.24021850  1
  C  1830  1  0.83850200  0.33301000  0.24590850  1
  C  1835  1  0.76141300  0.30649250  0.25748800  1
  C  1837  1  0.98913300  0.29592750  0.21931150  1
  C  1839  1  0.81843100  0.66371100  0.22585600  1
  C  1840  1  0.85822900  0.65136100  0.23154000  1
  C  1841  1  0.91548200  0.65410150  0.24177450  1
  C  1842  1  0.93010300  0.66908800  0.24610700  1
  C  1845  1  0.95669100  0.64181400  0.24689900  1
  C  1846  1  0.94139800  0.62716250  0.24243750  1
  C  1847  1  0.88522800  0.62446850  0.23255600  1
  C  1848  1  0.84447400  0.63643200  0.22708650  1
  C  1853  1  0.76128600  0.66263250  0.21599650  1
  C  1855  1  0.98490900  0.67394350  0.25532700  1
  H  7  1  0.13974300  0.90670400  0.04325500  1
  H  8  1  0.03714300  0.93346900  0.07528600  1
  H  9  1  0.04319100  0.94715300  0.03063100  1
  H  16  1  0.20827500  0.90061400  0.06623900  1
  H  17  1  0.12707700  0.87690000  0.10266000  1
  H  18  1  0.00134700  0.90926000  0.08223300  1
  H  29  1  0.14134100  0.06278000  0.43104650  1
  H  30  1  0.03825900  0.03612700  0.39893300  1
  H  31  1  0.04389500  0.02269100  0.44367400  1
  H  38  1  0.20991100  0.06862700  0.40799350  1
  H  39  1  0.12721100  0.09241100  0.37147300  1
  H  40  1  0.00220500  0.06043500  0.39200200  1
  H  51  1  0.13927000  0.17889950  0.15979200  1
  H  52  1  0.03705300  0.14686400  0.18641500  1
  H  53  1  0.04205200  0.19156750  0.19995500  1
  H  60  1  0.20804500  0.15590350  0.15381100  1
  H  61  1  0.12668200  0.11940600  0.13006000  1
  H  62  1  0.00126500  0.13989300  0.16215900  1
  H  73  1  0.13888800  0.79090100  0.31615200  1
  H  74  1  0.03700600  0.82309500  0.28917100  1
  H  75  1  0.04274200  0.77836950  0.27568900  1
  H  82  1  0.20795200  0.81399400  0.32205000  1
  H  83  1  0.12536500  0.85053450  0.34564750  1
  H  84  1  0.00025500  0.82998100  0.31342950  1
  H  95  1  0.59603900  0.90878600  0.42842500  1
  H  96  1  0.69081100  0.93619500  0.39599900  1
  H  97  1  0.68991500  0.94949900  0.44076400  1
  H  104  1  0.52534100  0.90299500  0.40399500  1
  H  105  1  0.61859200  0.87967100  0.36826950  1
  H  106  1  0.73622900  0.91133000  0.39133150  1
  H  117  1  0.59692700  0.06214400  0.04627300  1
  H  118  1  0.69188300  0.03434900  0.07872900  1
  H  119  1  0.69052700  0.02127550  0.03389600  1
  H  126  1  0.52592800  0.06772800  0.07085000  1
  H  127  1  0.62009900  0.09072200  0.10675800  1
  H  128  1  0.73778000  0.05920450  0.08341900  1
  H  139  1  0.59494100  0.17618600  0.31389200  1
  H  140  1  0.68943600  0.14366900  0.28629600  1
  H  141  1  0.68850400  0.18848900  0.27319350  1
  H  148  1  0.52405800  0.15159400  0.31950400  1
  H  149  1  0.61882800  0.11567000  0.34256900  1
  H  150  1  0.73565100  0.13901200  0.31117100  1
  H  161  1  0.60076400  0.79358900  0.16009250  1
  H  162  1  0.69434300  0.82603650  0.18785550  1
  H  163  1  0.69303000  0.78127100  0.20117400  1
  H  170  1  0.52952400  0.81808150  0.15433300  1
  H  171  1  0.62235800  0.85392100  0.13130800  1
  H  172  1  0.74052100  0.83072400  0.16305150  1
  H  183  1  0.55260800  0.05523000  0.92637100  1
  H  184  1  0.73580500  0.03705400  0.90646200  1
  H  185  1  0.65270200  0.01791100  0.94502750  1
  H  192  1  0.53201200  0.06641400  0.90499450  1
  H  193  1  0.63777100  0.09131850  0.87288600  1
  H  194  1  0.75010500  0.05894950  0.89618450  1
  H  205  1  0.54589200  0.91547800  0.54819800  1
  H  206  1  0.72877100  0.93339800  0.56851050  1
  H  207  1  0.64650500  0.95243300  0.52954100  1
  H  214  1  0.52506600  0.90446000  0.56966100  1
  H  215  1  0.63166900  0.87922500  0.60180400  1
  H  216  1  0.74347400  0.91138000  0.57865850  1
  H  227  1  0.60855300  0.79164100  0.81491900  1
  H  228  1  0.71171300  0.82367200  0.78846650  1
  H  229  1  0.70601700  0.77898950  0.77477400  1
  H  236  1  0.53834400  0.81493300  0.82015850  1
  H  237  1  0.61972300  0.85078400  0.84486350  1
  H  238  1  0.74760300  0.83024000  0.81321000  1
  H  249  1  0.60315800  0.17826500  0.65913800  1
  H  250  1  0.70742600  0.14608550  0.68572150  1
  H  251  1  0.70187300  0.19080050  0.69932400  1
  H  258  1  0.53278800  0.15495650  0.65395900  1
  H  259  1  0.61427300  0.11900000  0.62933800  1
  H  260  1  0.74283900  0.13952900  0.66097400  1
  H  271  1  0.19945900  0.05514250  0.55013400  1
  H  272  1  0.02432000  0.03603900  0.57173850  1
  H  273  1  0.10426500  0.01689400  0.53271250  1
  H  280  1  0.22494600  0.06466650  0.57262550  1
  H  281  1  0.12084700  0.08880800  0.60603650  1
  H  282  1  0.00562200  0.05925550  0.57988650  1
  H  293  1  0.20514300  0.91411300  0.92447100  1
  H  294  1  0.02940000  0.93367500  0.90278200  1
  H  295  1  0.10976800  0.95236200  0.94209900  1
  H  302  1  0.23052000  0.90488600  0.90183500  1
  H  303  1  0.12580200  0.88094000  0.86830300  1
  H  304  1  0.01069200  0.91046000  0.89455650  1
  H  315  1  0.15020100  0.79401400  0.66049950  1
  H  316  1  0.05361500  0.82667650  0.68758500  1
  H  317  1  0.05569100  0.78197150  0.70118200  1
  H  324  1  0.22298800  0.81899200  0.65586350  1
  H  325  1  0.12963000  0.85402800  0.63126400  1
  H  326  1  0.00838200  0.83075350  0.66198250  1
  H  337  1  0.14942900  0.17593550  0.81395600  1
  H  338  1  0.05150600  0.14342050  0.78697000  1
  H  339  1  0.05331100  0.18807900  0.77321350  1
  H  346  1  0.22223000  0.15110550  0.81873200  1
  H  347  1  0.13166400  0.11613200  0.84340400  1
  H  348  1  0.00806900  0.13923400  0.81251150  1
  H  359  1  0.13949800  0.40680300  0.54390100  1
  H  360  1  0.03605500  0.43335800  0.57598900  1
  H  361  1  0.04121700  0.44708600  0.53131800  1
  H  368  1  0.21007400  0.40152200  0.56720000  1
  H  369  1  0.12965600  0.37690600  0.60309100  1
  H  370  1  0.00069000  0.40864000  0.58255150  1
  H  381  1  0.14588700  0.56237500  0.93060800  1
  H  382  1  0.04222600  0.53596100  0.89837700  1
  H  383  1  0.04703700  0.52239900  0.94310800  1
  H  390  1  0.21644000  0.56749900  0.90733500  1
  H  391  1  0.13477400  0.59226000  0.87137300  1
  H  392  1  0.00666600  0.56075900  0.89181150  1
  H  403  1  0.19517100  0.67404800  0.66747100  1
  H  404  1  0.01474900  0.65372400  0.68598500  1
  H  405  1  0.09633700  0.69274000  0.70471700  1
  H  412  1  0.21657300  0.65243500  0.65662700  1
  H  413  1  0.10977500  0.62030350  0.63168650  1
  H  414  1  0.99855000  0.64376100  0.66388500  1
  H  425  1  0.20051500  0.29571000  0.80766300  1
  H  426  1  0.01830300  0.31611900  0.78919750  1
  H  427  1  0.10001200  0.27700950  0.77051100  1
  H  434  1  0.22186900  0.31735900  0.81843250  1
  H  435  1  0.11534100  0.34950700  0.84346600  1
  H  436  1  0.00308700  0.32612100  0.81130350  1
  H  447  1  0.60022700  0.40857900  0.92846900  1
  H  448  1  0.69773900  0.43533650  0.89587900  1
  H  449  1  0.69593500  0.44919900  0.94050350  1
  H  456  1  0.52750500  0.40383450  0.90351800  1
  H  457  1  0.61923900  0.37897250  0.86867950  1
  H  458  1  0.74186700  0.40971050  0.89186200  1
  H  469  1  0.59531900  0.56191450  0.54611250  1
  H  470  1  0.69311500  0.53485800  0.57880400  1
  H  471  1  0.69103800  0.52114000  0.53413300  1
  H  478  1  0.52235400  0.56652300  0.57111500  1
  H  479  1  0.61459900  0.59122900  0.60606500  1
  H  480  1  0.73738300  0.56049300  0.58283350  1
  H  491  1  0.54722400  0.67232300  0.80833800  1
  H  492  1  0.72070400  0.65032400  0.78862250  1
  H  493  1  0.64147100  0.68990300  0.77013900  1
  H  500  1  0.52125200  0.64960400  0.81744950  1
  H  501  1  0.62638300  0.61583100  0.84122350  1
  H  502  1  0.74065900  0.64216050  0.81187700  1
  H  513  1  0.54798700  0.29746750  0.66651250  1
  H  514  1  0.72280100  0.31917200  0.68598400  1
  H  515  1  0.64320000  0.28012000  0.70497300  1
  H  522  1  0.52186700  0.32003250  0.65714900  1
  H  523  1  0.62508900  0.35350400  0.63314200  1
  H  524  1  0.74134200  0.32731900  0.66274850  1
  H  535  1  0.54787600  0.55488900  0.42615000  1
  H  536  1  0.72924000  0.53647850  0.40573850  1
  H  537  1  0.64890400  0.51763750  0.44478550  1
  H  544  1  0.52449300  0.56483100  0.40399900  1
  H  545  1  0.63007000  0.59092700  0.37278200  1
  H  546  1  0.74476100  0.55911000  0.39638700  1
  H  557  1  0.54653500  0.41513750  0.04857100  1
  H  558  1  0.72643500  0.43365600  0.06948100  1
  H  559  1  0.64764100  0.45201950  0.02980800  1
  H  566  1  0.52250600  0.40559850  0.07094700  1
  H  567  1  0.62906600  0.37946000  0.10242200  1
  H  568  1  0.74298900  0.41089850  0.07870900  1
  H  579  1  0.54888500  0.29644400  0.30677500  1
  H  580  1  0.72949100  0.31691500  0.28849950  1
  H  581  1  0.64962500  0.27769500  0.26976100  1
  H  588  1  0.52528300  0.31863500  0.31661500  1
  H  589  1  0.63129900  0.34992600  0.34277600  1
  H  590  1  0.74542900  0.32626600  0.31115700  1
  H  601  1  0.54753100  0.67349750  0.16641300  1
  H  602  1  0.72699100  0.65263050  0.18551300  1
  H  603  1  0.64683100  0.69216150  0.20375950  1
  H  610  1  0.52383000  0.65104300  0.15693900  1
  H  611  1  0.63125100  0.61971300  0.13100700  1
  H  612  1  0.74451200  0.64356350  0.16270600  1
  H  623  1  0.19873900  0.55497700  0.04979000  1
  H  624  1  0.02281100  0.53653300  0.07167200  1
  H  625  1  0.10193600  0.51669950  0.03285000  1
  H  632  1  0.22672300  0.56327800  0.07289000  1
  H  633  1  0.12504800  0.58923400  0.10527000  1
  H  634  1  0.00524600  0.56050150  0.07903700  1
  H  645  1  0.19984300  0.41377400  0.42466000  1
  H  646  1  0.02356200  0.43283850  0.40273900  1
  H  647  1  0.10245000  0.45190850  0.44206650  1
  H  654  1  0.22775900  0.40585400  0.40138450  1
  H  655  1  0.12553700  0.38037550  0.36864850  1
  H  656  1  0.00599700  0.40892250  0.39516050  1
  H  667  1  0.20129200  0.29796400  0.16696150  1
  H  668  1  0.02481200  0.31984850  0.18559950  1
  H  669  1  0.10398100  0.28059350  0.20490400  1
  H  676  1  0.22882400  0.32115300  0.15886150  1
  H  677  1  0.12590100  0.35378900  0.13315850  1
  H  678  1  0.00714300  0.32737600  0.16167950  1
  H  689  1  0.19563100  0.67201300  0.30836600  1
  H  690  1  0.02020000  0.65015400  0.28933450  1
  H  691  1  0.10006400  0.68897100  0.26978650  1
  H  698  1  0.22376600  0.64886300  0.31652050  1
  H  699  1  0.12222000  0.61644600  0.34222700  1
  H  700  1  0.00224700  0.64274900  0.31330950  1
  H  715  1  0.06157500  0.88815200  0.13029100  1
  H  716  1  0.12549500  0.87377350  0.14818050  1
  H  717  1  0.06571700  0.85511400  0.16296200  1
  H  718  1  0.94217700  0.85106200  0.15992150  1
  H  720  1  0.82875300  0.84744000  0.15538150  1
  H  722  1  0.91510900  0.89937600  0.10285000  1
  H  733  1  0.06028800  0.08162350  0.34397250  1
  H  734  1  0.12284700  0.09606600  0.32616650  1
  H  735  1  0.06156500  0.11473000  0.31137750  1
  H  736  1  0.93789400  0.11871800  0.31433200  1
  H  738  1  0.82448500  0.12229200  0.31881700  1
  H  740  1  0.91521900  0.07032200  0.37131300  1
  H  751  1  0.06114000  0.09185150  0.14092300  1
  H  752  1  0.12446600  0.07401100  0.12650700  1
  H  753  1  0.06389400  0.05926400  0.10780900  1
  H  754  1  0.94016300  0.06229550  0.10375600  1
  H  756  1  0.82656600  0.06682200  0.10015300  1
  H  758  1  0.91523000  0.11926500  0.15223400  1
  H  769  1  0.05863000  0.87812300  0.33427050  1
  H  770  1  0.12167000  0.89609300  0.34855150  1
  H  771  1  0.06111900  0.91100800  0.36709200  1
  H  772  1  0.93767700  0.90802200  0.37111900  1
  H  774  1  0.82442600  0.90355050  0.37469200  1
  H  776  1  0.91352700  0.85060200  0.32318400  1
  H  787  1  0.70034700  0.07939800  0.84821200  1
  H  788  1  0.63080900  0.09300550  0.83067500  1
  H  789  1  0.68377700  0.11242500  0.81570750  1
  H  790  1  0.80624300  0.11795500  0.81820900  1
  H  792  1  0.92007700  0.12233200  0.82151350  1
  H  794  1  0.85160800  0.06994800  0.87521300  1
  H  805  1  0.69569900  0.89051500  0.62649900  1
  H  806  1  0.62772100  0.87674650  0.64392000  1
  H  807  1  0.68251300  0.85727500  0.65878550  1
  H  808  1  0.80523700  0.85185700  0.65629900  1
  H  810  1  0.91920800  0.84760200  0.65301950  1
  H  812  1  0.84540600  0.90023100  0.59960350  1
  H  823  1  0.68467700  0.87746100  0.83658550  1
  H  824  1  0.61892900  0.89424200  0.85172800  1
  H  825  1  0.67722500  0.90840500  0.87118500  1
  H  826  1  0.80121900  0.90584300  0.87525650  1
  H  828  1  0.91652800  0.90255100  0.87823650  1
  H  830  1  0.83477600  0.85121200  0.82432400  1
  H  841  1  0.68087900  0.09221200  0.63782750  1
  H  842  1  0.61532400  0.07539250  0.62270200  1
  H  843  1  0.67342200  0.06125850  0.60323150  1
  H  844  1  0.79705700  0.06388000  0.59912900  1
  H  846  1  0.91205500  0.06719100  0.59616550  1
  H  848  1  0.83012500  0.11858650  0.64996600  1
  H  859  1  0.06445200  0.38542800  0.62984700  1
  H  860  1  0.13092400  0.37030250  0.64664700  1
  H  861  1  0.07361500  0.35080800  0.66077550  1
  H  862  1  0.94987500  0.34667900  0.65816200  1
  H  864  1  0.83474400  0.34365900  0.65483500  1
  H  866  1  0.91376100  0.39757100  0.60353600  1
  H  877  1  0.06828100  0.58422450  0.84463600  1
  H  878  1  0.13307400  0.59949150  0.82793900  1
  H  879  1  0.07385200  0.61896100  0.81383800  1
  H  880  1  0.94988500  0.62291650  0.81637200  1
  H  882  1  0.83474400  0.62582350  0.81969150  1
  H  884  1  0.91922100  0.57182000  0.87080450  1
  H  895  1  0.04680200  0.59578400  0.64321250  1
  H  896  1  0.11595600  0.57830550  0.62959050  1
  H  897  1  0.06258100  0.56351700  0.60997350  1
  H  898  1  0.94008700  0.56613700  0.60426200  1
  H  900  1  0.82612700  0.56946400  0.59980250  1
  H  902  1  0.89619200  0.62283300  0.65264050  1
  H  913  1  0.05074500  0.37411450  0.83185800  1
  H  914  1  0.11953400  0.39163550  0.84546200  1
  H  915  1  0.06611900  0.40650200  0.86498700  1
  H  916  1  0.94392100  0.40391800  0.87062350  1
  H  918  1  0.83023700  0.40064450  0.87499300  1
  H  920  1  0.90093200  0.34701400  0.82248400  1
  H  931  1  0.69306100  0.58178100  0.34903950  1
  H  932  1  0.62057900  0.59598900  0.33254400  1
  H  933  1  0.67029900  0.61639100  0.31840000  1
  H  934  1  0.79256300  0.62227850  0.32066950  1
  H  936  1  0.90793700  0.62617700  0.32273000  1
  H  938  1  0.84830600  0.57179700  0.37510750  1
  H  949  1  0.69375500  0.38821200  0.12610200  1
  H  950  1  0.62294600  0.37393800  0.14257850  1
  H  951  1  0.67459000  0.35355000  0.15669350  1
  H  952  1  0.79709900  0.34774700  0.15441400  1
  H  954  1  0.91251600  0.34393100  0.15232700  1
  H  956  1  0.84708500  0.39826200  0.09998100  1
  H  967  1  0.69462400  0.37362150  0.33391850  1
  H  968  1  0.62287200  0.39011150  0.34814350  1
  H  969  1  0.67354400  0.40418050  0.36859550  1
  H  970  1  0.79601100  0.40183750  0.37451700  1
  H  972  1  0.91144300  0.39966500  0.37848250  1
  H  974  1  0.84905500  0.34748900  0.32389800  1
  H  985  1  0.69592100  0.59607100  0.14028150  1
  H  986  1  0.62412200  0.57952100  0.12615950  1
  H  987  1  0.67416100  0.56544200  0.10567900  1
  H  988  1  0.79608200  0.56782400  0.09962900  1
  H  990  1  0.91122100  0.56993700  0.09564200  1
  H  992  1  0.84943900  0.62234500  0.15002500  1
  H  1003  1  0.40732900  0.82154300  0.12683950  1
  H  1004  1  0.31210300  0.80468350  0.12371750  1
  H  1005  1  0.21097400  0.81135200  0.10839800  1
  H  1006  1  0.20556100  0.83486200  0.09627300  1
  H  1008  1  0.19454000  0.85876400  0.09221400  1
  H  1010  1  0.51723100  0.85761800  0.12239400  1
  H  1021  1  0.40190000  0.14780100  0.34706400  1
  H  1022  1  0.30661600  0.16471400  0.35066550  1
  H  1023  1  0.20764800  0.15800000  0.36628500  1
  H  1024  1  0.20441800  0.13439800  0.37823000  1
  H  1026  1  0.19448800  0.11047800  0.38204800  1
  H  1028  1  0.51374600  0.11169300  0.35099100  1
  H  1039  1  0.40299000  0.09522300  0.07457150  1
  H  1040  1  0.30708700  0.09858850  0.05772600  1
  H  1041  1  0.20683200  0.11403400  0.06447400  1
  H  1042  1  0.20295000  0.12604000  0.08804400  1
  H  1044  1  0.19317200  0.12995900  0.11195600  1
  H  1046  1  0.51492300  0.09938600  0.11062100  1
  H  1057  1  0.40388000  0.87539500  0.40065300  1
  H  1058  1  0.30950100  0.87206100  0.41764850  1
  H  1059  1  0.20984700  0.85645450  0.41115500  1
  H  1060  1  0.20504900  0.84425000  0.38768550  1
  H  1062  1  0.19367100  0.84017000  0.36379250  1
  H  1064  1  0.51345100  0.87103000  0.36449950  1
  H  1075  1  0.35145500  0.14691950  0.84548700  1
  H  1076  1  0.44772600  0.16349600  0.84877600  1
  H  1077  1  0.54894300  0.15631600  0.86383850  1
  H  1078  1  0.55343900  0.13260450  0.87555200  1
  H  1080  1  0.56136900  0.10889100  0.88046550  1
  H  1082  1  0.23928400  0.11110750  0.84977400  1
  H  1093  1  0.35074400  0.82344300  0.62881000  1
  H  1094  1  0.44698400  0.80681850  0.62496700  1
  H  1095  1  0.54623100  0.81412150  0.60969500  1
  H  1096  1  0.54879500  0.83799900  0.59832500  1
  H  1098  1  0.55574900  0.86178000  0.59384800  1
  H  1100  1  0.23697600  0.85935800  0.62531100  1
  H  1111  1  0.34462200  0.87674100  0.89882000  1
  H  1112  1  0.43815800  0.87253600  0.91599550  1
  H  1113  1  0.53573100  0.85618750  0.90964200  1
  H  1114  1  0.53912300  0.84412900  0.88612000  1
  H  1116  1  0.55028800  0.84013300  0.86234800  1
  H  1118  1  0.23240400  0.87300300  0.86271800  1
  H  1129  1  0.33797600  0.09286300  0.57552350  1
  H  1130  1  0.43022100  0.09710400  0.55828850  1
  H  1131  1  0.52712100  0.11353950  0.56455700  1
  H  1132  1  0.53113100  0.12564950  0.58805300  1
  H  1134  1  0.54354000  0.12965100  0.61182850  1
  H  1136  1  0.22751600  0.09663950  0.61165500  1
  H  1147  1  0.40761400  0.32297500  0.62907900  1
  H  1148  1  0.31473400  0.30580900  0.62500300  1
  H  1149  1  0.21661700  0.31213000  0.60870400  1
  H  1150  1  0.21203300  0.33561400  0.59656950  1
  H  1152  1  0.19981400  0.35937700  0.59248000  1
  H  1154  1  0.51821000  0.35905500  0.62515800  1
  H  1165  1  0.40781000  0.64634300  0.84562400  1
  H  1166  1  0.31484100  0.66354150  0.85009700  1
  H  1167  1  0.21852900  0.65712450  0.86655050  1
  H  1168  1  0.21581000  0.63351650  0.87844400  1
  H  1170  1  0.20452800  0.60970950  0.88219950  1
  H  1172  1  0.52004300  0.61019550  0.84900800  1
  H  1183  1  0.39225000  0.59318600  0.57566200  1
  H  1184  1  0.29471200  0.59655800  0.55922650  1
  H  1185  1  0.19397100  0.61154850  0.56662900  1
  H  1186  1  0.19120300  0.62311000  0.59041350  1
  H  1188  1  0.18515900  0.62793300  0.61413000  1
  H  1190  1  0.50714700  0.59729800  0.61132750  1
  H  1201  1  0.39908700  0.37693150  0.89915450  1
  H  1202  1  0.30337400  0.37327700  0.91575700  1
  H  1203  1  0.20362800  0.35802400  0.90851400  1
  H  1204  1  0.20003700  0.34648400  0.88471900  1
  H  1206  1  0.19222100  0.34180200  0.86097150  1
  H  1208  1  0.51155900  0.37308300  0.86332100  1
  H  1219  1  0.34421500  0.64520250  0.34385000  1
  H  1220  1  0.43904900  0.66193300  0.34773850  1
  H  1221  1  0.53851100  0.65493600  0.36338600  1
  H  1222  1  0.54248100  0.63124750  0.37507200  1
  H  1224  1  0.55049700  0.60772950  0.38018500  1
  H  1226  1  0.23042400  0.60956900  0.34797300  1
  H  1237  1  0.34945800  0.32517100  0.13153500  1
  H  1238  1  0.44424100  0.30838550  0.12718800  1
  H  1239  1  0.54139300  0.31540200  0.11120800  1
  H  1240  1  0.54313300  0.33915300  0.09965400  1
  H  1242  1  0.55001300  0.36270800  0.09478100  1
  H  1244  1  0.23367600  0.36082200  0.12786750  1
  H  1255  1  0.34918800  0.37862200  0.39731200  1
  H  1256  1  0.44469600  0.37446650  0.41401000  1
  H  1257  1  0.54332900  0.35873950  0.40688200  1
  H  1258  1  0.54581300  0.34724450  0.38310300  1
  H  1260  1  0.55263700  0.34236900  0.35954550  1
  H  1262  1  0.23343900  0.37487900  0.36168650  1
  H  1273  1  0.34772000  0.59040700  0.07670900  1
  H  1274  1  0.44250700  0.59430950  0.06001100  1
  H  1275  1  0.54091900  0.61004150  0.06701000  1
  H  1276  1  0.54390300  0.62180200  0.09066200  1
  H  1278  1  0.55133700  0.62698450  0.11416450  1
  H  1280  1  0.23310900  0.59465500  0.11223800  1
  H  1291  1  0.21973000  0.90376200  0.95021100  1
  H  1292  1  0.19611700  0.87800600  0.95506600  1
  H  1293  1  0.15081700  0.87029700  0.97908900  1
  H  1294  1  0.13007100  0.88824100  0.99830050  1
  H  1296  1  0.15193000  0.90560900  0.01658200  1
  H  1298  1  0.28776500  0.93616300  0.95938100  1
  H  1309  1  0.21680700  0.06534100  0.52468300  1
  H  1310  1  0.19559900  0.09122700  0.51972450  1
  H  1311  1  0.15283500  0.09920000  0.49545900  1
  H  1312  1  0.13226900  0.08138700  0.47611400  1
  H  1314  1  0.15347100  0.06390700  0.45791400  1
  H  1316  1  0.28300200  0.03256850  0.51582200  1
  H  1327  1  0.21562500  0.27215250  0.15681350  1
  H  1328  1  0.19258400  0.26717800  0.13101200  1
  H  1329  1  0.14853800  0.24303900  0.12324900  1
  H  1330  1  0.12846000  0.22383400  0.14118850  1
  H  1332  1  0.15071600  0.20564200  0.15865250  1
  H  1334  1  0.28318900  0.26326800  0.18953550  1
  H  1345  1  0.21620700  0.69728100  0.31845900  1
  H  1346  1  0.19749100  0.70223950  0.34439000  1
  H  1347  1  0.15536000  0.72649400  0.35244900  1
  H  1348  1  0.13292500  0.74582800  0.33468000  1
  H  1350  1  0.15183500  0.76401950  0.31717450  1
  H  1352  1  0.27896600  0.70608750  0.28558050  1
  H  1363  1  0.53133900  0.90531300  0.52217350  1
  H  1364  1  0.55379900  0.87955100  0.51689700  1
  H  1365  1  0.59442400  0.87195000  0.49244000  1
  H  1366  1  0.61166400  0.89001500  0.47322400  1
  H  1368  1  0.58725800  0.90758700  0.45527400  1
  H  1370  1  0.46199500  0.93815100  0.51376000  1
  H  1381  1  0.53444300  0.06539000  0.95205200  1
  H  1382  1  0.55452000  0.09120300  0.95734600  1
  H  1383  1  0.59312100  0.09893800  0.98196300  1
  H  1384  1  0.61069000  0.08096000  0.00131800  1
  H  1386  1  0.58763900  0.06339600  0.01924100  1
  H  1388  1  0.46737600  0.03249450  0.96023700  1
  H  1399  1  0.53481700  0.27050100  0.31705550  1
  H  1400  1  0.55679200  0.26525050  0.34285000  1
  H  1401  1  0.59562100  0.24062700  0.35059350  1
  H  1402  1  0.61156900  0.22122250  0.33263950  1
  H  1404  1  0.58677600  0.20326800  0.31515600  1
  H  1406  1  0.46490800  0.26221300  0.28422900  1
  H  1417  1  0.53791300  0.69981200  0.15609850  1
  H  1418  1  0.56345000  0.70508500  0.13051250  1
  H  1419  1  0.60496100  0.72954000  0.12321300  1
  H  1420  1  0.62004300  0.74876050  0.14139500  1
  H  1422  1  0.59332500  0.76671600  0.15876900  1
  H  1424  1  0.46427000  0.70838100  0.18843500  1
  H  1435  1  0.53670500  0.69831200  0.81861900  1
  H  1436  1  0.56290900  0.70336100  0.84427350  1
  H  1437  1  0.60735500  0.72756200  0.85173750  1
  H  1438  1  0.62464600  0.74675550  0.83364950  1
  H  1440  1  0.59944300  0.76489150  0.81627600  1
  H  1442  1  0.46404900  0.70725200  0.78631650  1
  H  1453  1  0.53041000  0.27198900  0.65631800  1
  H  1454  1  0.55115700  0.26697200  0.63047200  1
  H  1455  1  0.59320300  0.24264900  0.62259600  1
  H  1456  1  0.61350700  0.22330700  0.64046500  1
  H  1458  1  0.59240900  0.20516200  0.65792150  1
  H  1460  1  0.46427200  0.26321800  0.68899050  1
  H  1471  1  0.21037200  0.69987150  0.65724900  1
  H  1472  1  0.18737800  0.70511300  0.63149100  1
  H  1473  1  0.14772900  0.72970250  0.62382050  1
  H  1474  1  0.13199200  0.74908000  0.64180800  1
  H  1476  1  0.15704000  0.76702200  0.65924850  1
  H  1478  1  0.28073700  0.70809300  0.69000400  1
  H  1489  1  0.21362900  0.26952400  0.81782700  1
  H  1490  1  0.18988400  0.26421800  0.84348300  1
  H  1491  1  0.14840300  0.23978500  0.85086400  1
  H  1492  1  0.13157900  0.22062300  0.83269150  1
  H  1494  1  0.15660700  0.20271100  0.81520650  1
  H  1496  1  0.28412600  0.26113400  0.78522600  1
  H  1507  1  0.21315300  0.40360600  0.45054100  1
  H  1508  1  0.19053600  0.37784450  0.45556400  1
  H  1509  1  0.14717300  0.37017300  0.47975900  1
  H  1510  1  0.12740300  0.38816050  0.49897250  1
  H  1512  1  0.14979500  0.40559500  0.51712550  1
  H  1514  1  0.28118500  0.43618850  0.45948600  1
  H  1525  1  0.21837900  0.56490550  0.02438300  1
  H  1526  1  0.20037800  0.59086100  0.01925700  1
  H  1527  1  0.15960900  0.59892000  0.99487200  1
  H  1528  1  0.13786100  0.58112250  0.97557650  1
  H  1530  1  0.15724100  0.56348600  0.95751350  1
  H  1532  1  0.28145100  0.53182050  0.01577800  1
  H  1543  1  0.53802100  0.40489000  0.02215800  1
  H  1544  1  0.56380200  0.37925600  0.01694400  1
  H  1545  1  0.60573200  0.37184300  0.99252900  1
  H  1546  1  0.62099100  0.38996400  0.97329400  1
  H  1548  1  0.59440300  0.40732800  0.95531100  1
  H  1550  1  0.46464800  0.43741250  0.01357300  1
  H  1561  1  0.53280900  0.56508400  0.45207000  1
  H  1562  1  0.55376300  0.59086900  0.45733750  1
  H  1563  1  0.59325900  0.59855750  0.48190650  1
  H  1564  1  0.61087300  0.58056250  0.50123900  1
  H  1566  1  0.58751700  0.56306600  0.51916500  1
  H  1568  1  0.46464400  0.53230450  0.46042700  1
  H  1579  1  0.81110000  0.01340100  0.08499700  1
  H  1580  1  0.85071600  0.00749900  0.10965300  1
  H  1581  1  0.91866300  0.98498400  0.11436400  1
  H  1582  1  0.94738500  0.96838800  0.09438000  1
  H  1584  1  0.93976700  0.95103900  0.07442100  1
  H  1586  1  0.81284800  0.01479550  0.04569400  1
  H  1597  1  0.80890200  0.95679000  0.38972000  1
  H  1598  1  0.84755900  0.96235200  0.36502550  1
  H  1599  1  0.91587100  0.98460400  0.36012700  1
  H  1600  1  0.94593400  0.00127150  0.37997100  1
  H  1602  1  0.94013500  0.01880050  0.39975300  1
  H  1604  1  0.81214600  0.95576300  0.42909000  1
  H  1615  1  0.80842500  0.13731900  0.26561650  1
  H  1616  1  0.84769900  0.11263200  0.25983650  1
  H  1617  1  0.91612000  0.10786350  0.23754150  1
  H  1618  1  0.94565900  0.12782350  0.22104400  1
  H  1620  1  0.93900900  0.14776650  0.20368100  1
  H  1622  1  0.81075600  0.17664400  0.26700500  1
  H  1633  1  0.80983900  0.83253650  0.20914400  1
  H  1634  1  0.84640400  0.85729050  0.21515500  1
  H  1635  1  0.91320400  0.86215000  0.23775800  1
  H  1636  1  0.94383400  0.84221400  0.25433250  1
  H  1638  1  0.93891900  0.82223300  0.27158100  1
  H  1640  1  0.81572900  0.79320400  0.20769450  1
  H  1651  1  0.99736100  0.96766800  0.89599350  1
  H  1652  1  0.95918600  0.97398500  0.87140650  1
  H  1653  1  0.85850400  0.99039350  0.86757250  1
  H  1654  1  0.79625900  0.00053250  0.88836950  1
  H  1656  1  0.72683700  0.00331250  0.90956650  1
  H  1658  1  0.02496600  0.97083100  0.93526650  1
  H  1669  1  0.99430700  0.00195700  0.57867000  1
  H  1670  1  0.95854500  0.99567000  0.60332300  1
  H  1671  1  0.85846500  0.97940700  0.60735000  1
  H  1672  1  0.79442400  0.96938400  0.58668350  1
  H  1674  1  0.72345100  0.96658400  0.56576500  1
  H  1676  1  0.01818600  0.99881700  0.53930400  1
  H  1687  1  0.93801600  0.83337700  0.70900800  1
  H  1688  1  0.90166900  0.85814500  0.71525050  1
  H  1689  1  0.83519900  0.86289900  0.73780950  1
  H  1690  1  0.80472900  0.84284700  0.75411250  1
  H  1692  1  0.80974700  0.82268050  0.77112500  1
  H  1694  1  0.93290200  0.79395500  0.70724250  1
  H  1705  1  0.93458400  0.13694200  0.76590150  1
  H  1706  1  0.89723800  0.11218300  0.76013900  1
  H  1707  1  0.83019900  0.10719450  0.73759550  1
  H  1708  1  0.80013700  0.12700800  0.72083050  1
  H  1710  1  0.80511000  0.14681300  0.70340650  1
  H  1712  1  0.93058700  0.17636600  0.76687950  1
  H  1723  1  0.81042700  0.51354050  0.58542700  1
  H  1724  1  0.84832100  0.50756150  0.61018050  1
  H  1725  1  0.91525900  0.48494850  0.61505500  1
  H  1726  1  0.94466300  0.46832850  0.59513950  1
  H  1728  1  0.93873900  0.45106100  0.57519150  1
  H  1730  1  0.81367900  0.51483050  0.54601000  1
  H  1741  1  0.81433400  0.45624100  0.88933500  1
  H  1742  1  0.85179100  0.46185000  0.86456800  1
  H  1743  1  0.91906700  0.48421000  0.85953250  1
  H  1744  1  0.94926100  0.50094500  0.87930800  1
  H  1746  1  0.94445700  0.51843250  0.89906500  1
  H  1748  1  0.81840100  0.45536000  0.92879800  1
  H  1759  1  0.74508700  0.64400200  0.75380100  1
  H  1760  1  0.77553100  0.61924850  0.74649800  1
  H  1761  1  0.87366300  0.61476800  0.72978300  1
  H  1762  1  0.94106900  0.63506850  0.72034350  1
  H  1764  1  0.01466300  0.65508100  0.71764950  1
  H  1766  1  0.72846300  0.68362150  0.75210900  1
  H  1777  1  0.75121500  0.32609600  0.72029500  1
  H  1778  1  0.78552900  0.35080050  0.72681250  1
  H  1779  1  0.88513000  0.35497850  0.74337400  1
  H  1780  1  0.95014000  0.33441900  0.75345800  1
  H  1782  1  0.02174900  0.31373950  0.75651000  1
  H  1784  1  0.72914700  0.28672150  0.72322050  1
  H  1795  1  0.99436100  0.46720250  0.39574200  1
  H  1796  1  0.95960000  0.47382250  0.37101250  1
  H  1797  1  0.86040300  0.49053250  0.36677750  1
  H  1798  1  0.79624000  0.50066250  0.38730150  1
  H  1800  1  0.72542600  0.50382150  0.40793450  1
  H  1802  1  0.01836500  0.47028000  0.43498450  1
  H  1813  1  0.99799400  0.50163550  0.07884200  1
  H  1814  1  0.96784100  0.49470500  0.10366300  1
  H  1815  1  0.86984400  0.47803550  0.10824200  1
  H  1816  1  0.80229200  0.46826100  0.08798050  1
  H  1818  1  0.72878100  0.46514700  0.06789200  1
  H  1820  1  0.01529900  0.49898800  0.03946500  1
  H  1831  1  0.99606900  0.32677300  0.22003750  1
  H  1832  1  0.96213100  0.35151200  0.22671250  1
  H  1833  1  0.86313900  0.35580500  0.24325300  1
  H  1834  1  0.79836200  0.33533050  0.25315300  1
  H  1836  1  0.72710800  0.31484750  0.25615700  1
  H  1838  1  0.01855300  0.28742350  0.22290350  1
  H  1849  1  0.99920400  0.64326500  0.25380200  1
  H  1850  1  0.97181300  0.61846650  0.24622950  1
  H  1851  1  0.87470100  0.61381000  0.22915000  1
  H  1852  1  0.80526300  0.63397100  0.21961150  1
  H  1854  1  0.72992800  0.65378150  0.21665100  1
  H  1856  1  0.01280500  0.68269100  0.25199150  1
  N  19  1  0.01286900  0.88986800  0.10485900  1
  N  20  1  0.23643400  0.87825800  0.08493700  1
  N  21  1  0.99297500  0.95402700  0.05570700  1
  N  22  1  0.11363900  0.92567800  0.02059100  1
  N  41  1  0.01275300  0.07974450  0.36934750  1
  N  42  1  0.23733600  0.09090850  0.38916600  1
  N  43  1  0.99350800  0.01583000  0.41857050  1
  N  44  1  0.11437100  0.04400300  0.45376000  1
  N  63  1  0.01254400  0.11725950  0.14280800  1
  N  64  1  0.23591100  0.13714600  0.13148550  1
  N  65  1  0.99215500  0.16648400  0.20678000  1
  N  66  1  0.11240100  0.20160750  0.17863250  1
  N  85  1  0.01097100  0.85269600  0.33269700  1
  N  86  1  0.23565700  0.83287200  0.34428200  1
  N  87  1  0.99299400  0.80351050  0.26867450  1
  N  88  1  0.11231700  0.76822450  0.29724050  1
  N  107  1  0.73663300  0.89151500  0.36906550  1
  N  108  1  0.49988100  0.88218750  0.38406800  1
  N  109  1  0.73595300  0.95619400  0.41386900  1
  N  110  1  0.62359200  0.92770700  0.45112600  1
  N  129  1  0.73850100  0.07882900  0.10586000  1
  N  130  1  0.50059500  0.08835350  0.09099200  1
  N  131  1  0.73680800  0.01433500  0.06079600  1
  N  132  1  0.62458000  0.04326400  0.02352600  1
  N  151  1  0.73686900  0.11655200  0.33076100  1
  N  152  1  0.49926700  0.13142200  0.34012100  1
  N  153  1  0.73465800  0.16156300  0.26637600  1
  N  154  1  0.62265500  0.19890800  0.29503050  1
  N  173  1  0.74055000  0.85309750  0.14332450  1
  N  174  1  0.50368900  0.83809800  0.13361800  1
  N  175  1  0.73841100  0.80817450  0.20805950  1
  N  176  1  0.62767600  0.77088300  0.17911400  1
  N  195  1  0.75099500  0.07801500  0.87341350  1
  N  196  1  0.51726900  0.08935200  0.88711300  1
  N  197  1  0.75619900  0.01650750  0.92607100  1
  N  198  1  0.53887700  0.03443650  0.94513400  1
  N  217  1  0.74505700  0.89221400  0.60135000  1
  N  218  1  0.51082300  0.88144750  0.58750600  1
  N  219  1  0.74959400  0.95378900  0.54875100  1
  N  220  1  0.53260800  0.93614600  0.52920850  1
  N  239  1  0.73573100  0.85259150  0.83301850  1
  N  240  1  0.50896500  0.83361500  0.84247950  1
  N  241  1  0.75570400  0.80408950  0.76796150  1
  N  242  1  0.63592000  0.76890800  0.79613600  1
  N  261  1  0.73082300  0.11712800  0.64123900  1
  N  262  1  0.50297700  0.13620350  0.63169550  1
  N  263  1  0.75191900  0.16566500  0.70621300  1
  N  264  1  0.63119800  0.20096850  0.67792500  1
  N  283  1  0.00153200  0.07809500  0.60286200  1
  N  284  1  0.24398800  0.08561950  0.59210500  1
  N  285  1  0.00348400  0.01506400  0.55385100  1
  N  286  1  0.21343900  0.03417400  0.53138100  1
  N  305  1  0.00624700  0.89167800  0.87151800  1
  N  306  1  0.24946400  0.88401250  0.88226700  1
  N  307  1  0.00869400  0.95454800  0.92083200  1
  N  308  1  0.21909500  0.93485600  0.94347850  1
  N  327  1  0.00979600  0.85289700  0.64189350  1
  N  328  1  0.25063000  0.83923950  0.63545700  1
  N  329  1  0.00954300  0.80891300  0.70779650  1
  N  330  1  0.12187500  0.77139200  0.67942800  1
  N  349  1  0.01142200  0.11716600  0.83270150  1
  N  350  1  0.25162200  0.13102500  0.83923600  1
  N  351  1  0.00689500  0.16116500  0.76668300  1
  N  352  1  0.12076000  0.19856900  0.79497050  1
  N  371  1  0.01332000  0.38885400  0.60493200  1
  N  372  1  0.24028000  0.37921600  0.58590200  1
  N  373  1  0.99164900  0.45394750  0.55642650  1
  N  374  1  0.11162400  0.42565800  0.52119600  1
  N  393  1  0.01839800  0.58054300  0.86947500  1
  N  394  1  0.24589000  0.58979800  0.88862600  1
  N  395  1  0.99740100  0.51557800  0.91795350  1
  N  396  1  0.11740200  0.54366600  0.95331400  1
  N  415  1  0.99663300  0.62101100  0.64478000  1
  N  416  1  0.23042300  0.63450800  0.63366200  1
  N  417  1  0.99445600  0.67355300  0.70649850  1
  N  418  1  0.20926400  0.69297100  0.68811150  1
  N  437  1  0.00157200  0.34890400  0.83038400  1
  N  438  1  0.23646600  0.33531700  0.84137000  1
  N  439  1  0.99741700  0.29628150  0.76879200  1
  N  440  1  0.21374100  0.27662900  0.78708300  1
  N  459  1  0.73928500  0.38950800  0.86981050  1
  N  460  1  0.49882100  0.38335500  0.88337500  1
  N  461  1  0.74226100  0.45559250  0.91356500  1
  N  462  1  0.62882000  0.42757400  0.95106650  1
  N  481  1  0.73490900  0.58061800  0.60496100  1
  N  482  1  0.49366100  0.58692450  0.59133450  1
  N  483  1  0.73755300  0.51455850  0.56109400  1
  N  484  1  0.62409500  0.54292150  0.52351700  1
  N  503  1  0.74557900  0.61902500  0.83052850  1
  N  504  1  0.50278200  0.62987350  0.83821200  1
  N  505  1  0.74119100  0.66837750  0.76780400  1
  N  506  1  0.53299200  0.69141250  0.78769900  1
  N  525  1  0.74474500  0.35033800  0.64393150  1
  N  526  1  0.50208200  0.33954400  0.63623900  1
  N  527  1  0.74362700  0.30131500  0.70703350  1
  N  528  1  0.53404300  0.27872450  0.68747100  1
  N  547  1  0.74565300  0.57866300  0.37388600  1
  N  548  1  0.50805300  0.58786450  0.38619600  1
  N  549  1  0.75055000  0.51592750  0.42552100  1
  N  550  1  0.53529900  0.53421200  0.44515250  1
  N  569  1  0.74472700  0.39141400  0.10127100  1
  N  570  1  0.50668100  0.38263800  0.08893300  1
  N  571  1  0.74819600  0.45397300  0.04943800  1
  N  572  1  0.53441400  0.43553050  0.02918400  1
  N  591  1  0.74675300  0.34876400  0.33070250  1
  N  592  1  0.50931300  0.33647850  0.33964700  1
  N  593  1  0.75094200  0.29703000  0.26806800  1
  N  594  1  0.53610400  0.27737400  0.28620200  1
  N  613  1  0.74687900  0.62098900  0.14323750  1
  N  614  1  0.50840600  0.63306000  0.13398900  1
  N  615  1  0.74760000  0.67260800  0.20601750  1
  N  616  1  0.53426300  0.69279500  0.18682900  1
  N  635  1  0.00394900  0.57994350  0.10170100  1
  N  636  1  0.24926300  0.58401750  0.09247900  1
  N  637  1  0.00180200  0.51518650  0.05413300  1
  N  638  1  0.21155800  0.53376200  0.03122600  1
  N  657  1  0.00428800  0.38969650  0.37231350  1
  N  658  1  0.25009900  0.38531100  0.38155400  1
  N  659  1  0.00232100  0.45393050  0.42059350  1
  N  660  1  0.21230600  0.43459250  0.44366900  1
  N  679  1  0.00487500  0.35014000  0.14237600  1
  N  680  1  0.25059200  0.34091600  0.13823650  1
  N  681  1  0.00359300  0.30201900  0.20667350  1
  N  682  1  0.21398300  0.27902350  0.18780500  1
  N  701  1  0.00101500  0.62007200  0.33275800  1
  N  702  1  0.24636100  0.62928400  0.33726850  1
  N  703  1  0.99997200  0.66771050  0.26790800  1
  N  704  1  0.20916400  0.69059300  0.28721700  1
  N  709  1  0.85102500  0.88330900  0.12148200  1
  N  710  1  0.81853700  0.87394000  0.13008200  1
  N  727  1  0.84971700  0.08636600  0.35264900  1
  N  728  1  0.81643400  0.09572800  0.34403450  1
  N  745  1  0.85030000  0.10062600  0.13610800  1
  N  746  1  0.81742900  0.09203700  0.12672100  1
  N  763  1  0.84839300  0.86938550  0.33909400  1
  N  764  1  0.81546500  0.87805850  0.34839150  1
  N  781  1  0.90974500  0.08689400  0.85626400  1
  N  782  1  0.93882300  0.09649200  0.84736650  1
  N  799  1  0.90527300  0.88321600  0.61846300  1
  N  800  1  0.93531200  0.87359350  0.62731950  1
  N  817  1  0.89638000  0.86953750  0.84133000  1
  N  818  1  0.92794500  0.87797500  0.85104600  1
  N  835  1  0.89185400  0.10025750  0.63301250  1
  N  836  1  0.92341300  0.09183700  0.62329200  1
  N  853  1  0.85313100  0.38057300  0.62182400  1
  N  854  1  0.82203200  0.37083500  0.63023900  1
  N  871  1  0.85682300  0.58878800  0.85253400  1
  N  872  1  0.82472800  0.59851350  0.84413000  1
  N  889  1  0.83743200  0.60401500  0.63544900  1
  N  890  1  0.80812300  0.59519250  0.62575250  1
  N  907  1  0.84198200  0.36591500  0.83953200  1
  N  908  1  0.81257800  0.37477750  0.84917400  1
  N  925  1  0.90220600  0.58981100  0.35669850  1
  N  926  1  0.92966300  0.59981500  0.34802300  1
  N  943  1  0.90301700  0.38031100  0.11840000  1
  N  944  1  0.93152500  0.37033150  0.12707800  1
  N  961  1  0.90402300  0.36585800  0.34197750  1
  N  962  1  0.93196500  0.37450300  0.35200400  1
  N  979  1  0.90427700  0.60393200  0.13197750  1
  N  980  1  0.93203600  0.59527400  0.12194600  1
  N  997  1  0.41369900  0.86275950  0.10743700  1
  N  998  1  0.35883300  0.86661900  0.09945800  1
  N  1015  1  0.41195600  0.10645050  0.36613400  1
  N  1016  1  0.35813800  0.10254300  0.37424300  1
  N  1033  1  0.41203500  0.11441300  0.11587050  1
  N  1034  1  0.35759900  0.12244500  0.11978650  1
  N  1051  1  0.41117300  0.85587100  0.35950050  1
  N  1052  1  0.35701200  0.84775200  0.35572300  1
  N  1069  1  0.34309300  0.10544850  0.86426850  1
  N  1070  1  0.39781700  0.10132650  0.87213300  1
  N  1087  1  0.33914600  0.86518000  0.61065600  1
  N  1088  1  0.39289400  0.86938150  0.60270150  1
  N  1105  1  0.33498200  0.85758600  0.85742950  1
  N  1106  1  0.38831900  0.84913100  0.85371950  1
  N  1123  1  0.32954900  0.11210400  0.61687650  1
  N  1124  1  0.38258900  0.12060000  0.62054450  1
  N  1141  1  0.41516200  0.36431050  0.60978800  1
  N  1142  1  0.36154000  0.36799900  0.60135650  1
  N  1159  1  0.41852400  0.60482850  0.86449000  1
  N  1160  1  0.36577800  0.60107300  0.87298500  1
  N  1177  1  0.40368300  0.61171100  0.61722550  1
  N  1178  1  0.34922500  0.61953250  0.62147500  1
  N  1195  1  0.40890000  0.35847500  0.85755000  1
  N  1196  1  0.35487700  0.35052700  0.85338100  1
  N  1213  1  0.33491300  0.60360400  0.36251450  1
  N  1214  1  0.38894800  0.59957800  0.37064750  1
  N  1231  1  0.33639100  0.36685600  0.11312300  1
  N  1232  1  0.38933600  0.37092000  0.10485200  1
  N  1249  1  0.33728300  0.36029700  0.35558000  1
  N  1250  1  0.39092400  0.35214250  0.35147050  1
  N  1267  1  0.33676200  0.60920650  0.11823000  1
  N  1268  1  0.39029500  0.61736900  0.12227150  1
  N  1285  1  0.19100700  0.93686000  0.98045200  1
  N  1286  1  0.16944500  0.93267400  0.99357850  1
  N  1303  1  0.18777500  0.03243000  0.49427150  1
  N  1304  1  0.16763800  0.03674200  0.48102900  1
  N  1321  1  0.18760600  0.24195050  0.18993450  1
  N  1322  1  0.16673200  0.22876850  0.18571950  1
  N  1339  1  0.18367000  0.72766550  0.28559350  1
  N  1340  1  0.16391500  0.74090300  0.28995450  1
  N  1357  1  0.55454900  0.93861400  0.49199500  1
  N  1358  1  0.57362500  0.93449600  0.47866550  1
  N  1375  1  0.55876500  0.03221700  0.98242250  1
  N  1376  1  0.57671300  0.03640500  0.99582500  1
  N  1393  1  0.55620400  0.24002300  0.28391650  1
  N  1394  1  0.57440300  0.22662550  0.28811800  1
  N  1411  1  0.55702500  0.73001950  0.18955500  1
  N  1412  1  0.57667000  0.74334350  0.18557500  1
  N  1429  1  0.55934000  0.72850350  0.78531200  1
  N  1430  1  0.58047300  0.74171650  0.78936900  1
  N  1447  1  0.55903800  0.24158900  0.68931400  1
  N  1448  1  0.57879400  0.22831900  0.68505250  1
  N  1465  1  0.18937000  0.73030250  0.69044400  1
  N  1466  1  0.17082600  0.74369000  0.68627750  1
  N  1483  1  0.19130700  0.23942450  0.78435850  1
  N  1484  1  0.17177500  0.22610300  0.78837500  1
  N  1501  1  0.18587300  0.43677500  0.48075700  1
  N  1502  1  0.16537200  0.43261600  0.49397000  1
  N  1519  1  0.18697200  0.53199750  0.99408300  1
  N  1520  1  0.16793900  0.53633850  0.98077900  1
  N  1537  1  0.55753300  0.43827300  0.99191400  1
  N  1538  1  0.57738500  0.43423700  0.97860550  1
  N  1555  1  0.55685100  0.53187900  0.48243800  1
  N  1556  1  0.57534100  0.53604800  0.49581800  1
  N  1573  1  0.85051700  0.98733700  0.04874000  1
  N  1574  1  0.88781800  0.97531400  0.05125100  1
  N  1591  1  0.85056500  0.98304000  0.42575800  1
  N  1592  1  0.88810900  0.99491300  0.42314650  1
  N  1609  1  0.84916900  0.17354150  0.23968250  1
  N  1610  1  0.88672400  0.17099900  0.22777850  1
  N  1627  1  0.85263900  0.79633500  0.23517700  1
  N  1628  1  0.88935700  0.79893100  0.24724150  1
  N  1645  1  0.90093500  0.98275800  0.93371700  1
  N  1646  1  0.84729900  0.99179900  0.93166150  1
  N  1663  1  0.89451300  0.98707600  0.54113400  1
  N  1664  1  0.84115800  0.97812000  0.54329000  1
  N  1681  1  0.89552500  0.79698500  0.73458000  1
  N  1682  1  0.85900500  0.79952400  0.74662200  1
  N  1699  1  0.89291100  0.17294250  0.73950900  1
  N  1700  1  0.85605700  0.17027800  0.72747950  1
  N  1717  1  0.85103100  0.48742800  0.54926200  1
  N  1718  1  0.88779100  0.47535500  0.55186350  1
  N  1735  1  0.85626400  0.48260700  0.92527600  1
  N  1736  1  0.89324900  0.49453750  0.92258700  1
  N  1753  1  0.85129300  0.68096400  0.74006100  1
  N  1754  1  0.90368400  0.67858300  0.73088800  1
  N  1771  1  0.85283100  0.28871650  0.73522800  1
  N  1772  1  0.90595600  0.29095050  0.74433350  1
  N  1789  1  0.89432700  0.48222900  0.43305700  1
  N  1790  1  0.84140500  0.49140000  0.43079500  1
  N  1807  1  0.89171600  0.48725100  0.04192400  1
  N  1808  1  0.83935700  0.47811900  0.04436200  1
  N  1825  1  0.89483900  0.28952750  0.23466400  1
  N  1826  1  0.84200500  0.29181800  0.24374400  1
  N  1843  1  0.88945700  0.68000250  0.23989550  1
  N  1844  1  0.83755700  0.67752950  0.23055200  1
