# generated using pymatgen
data_H9C18(N3O4)2
_symmetry_space_group_name_H-M   'P 1'
_cell_length_a   54.51160000
_cell_length_b   54.51160000
_cell_length_c   54.51160000
_cell_angle_alpha   90.00000000
_cell_angle_beta   90.00000000
_cell_angle_gamma   90.00000000
_symmetry_Int_Tables_number   1
_chemical_formula_structural   H9C18(N3O4)2
_chemical_formula_sum   'H432 C864 N288 O384'
_cell_volume   161982.01170212
_cell_formula_units_Z   48
loop_
 _symmetry_equiv_pos_site_id
 _symmetry_equiv_pos_as_xyz
  1  'x, y, z'
loop_
 _atom_site_type_symbol
 _atom_site_label
 _atom_site_symmetry_multiplicity
 _atom_site_fract_x
 _atom_site_fract_y
 _atom_site_fract_z
 _atom_site_occupancy
  H  7  1  0.31245300  0.33532500  0.03911000  1
  H  16  1  0.33533100  0.31244900  0.96578100  1
  H  19  1  0.35120300  0.35386600  0.96380300  1
  H  20  1  0.33188600  0.37156700  0.94926300  1
  H  21  1  0.37146300  0.33180300  0.05575200  1
  H  22  1  0.35382400  0.35112900  0.04120600  1
  H  23  1  0.40744200  0.26353500  0.01187700  1
  H  24  1  0.40071900  0.25886800  0.98309300  1
  H  25  1  0.26361900  0.40749200  0.99300800  1
  H  26  1  0.25894900  0.40077900  0.02179600  1
  H  33  1  0.69249400  0.66966700  0.03912900  1
  H  42  1  0.66964900  0.69249400  0.96580300  1
  H  45  1  0.65379200  0.65114500  0.96370200  1
  H  46  1  0.67311100  0.63344900  0.94920800  1
  H  47  1  0.63339400  0.67309800  0.05567400  1
  H  48  1  0.65111900  0.65377500  0.04119700  1
  H  49  1  0.59747700  0.74137500  0.01184700  1
  H  50  1  0.60421900  0.74603500  0.98306300  1
  H  51  1  0.74139500  0.59750300  0.99309200  1
  H  52  1  0.74606200  0.60425700  0.02187200  1
  H  59  1  0.69249200  0.33529200  0.96577500  1
  H  68  1  0.66958500  0.31245900  0.03911600  1
  H  71  1  0.65377200  0.35388800  0.04108200  1
  H  72  1  0.67307800  0.37152700  0.05567600  1
  H  73  1  0.63337800  0.33187100  0.94924300  1
  H  74  1  0.65105500  0.35117500  0.96382700  1
  H  75  1  0.59749200  0.26353700  0.99298000  1
  H  76  1  0.60418800  0.25889000  0.02177400  1
  H  77  1  0.74146900  0.40736900  0.01186800  1
  H  78  1  0.74611500  0.40063600  0.98308200  1
  H  85  1  0.31245100  0.66960100  0.96580300  1
  H  94  1  0.33525700  0.69248300  0.03912900  1
  H  97  1  0.35115900  0.65105600  0.04112400  1
  H  98  1  0.33183800  0.63335400  0.05565600  1
  H  99  1  0.37148600  0.67309600  0.94920600  1
  H  100  1  0.35382600  0.65377900  0.96374100  1
  H  101  1  0.40736300  0.74145900  0.99307800  1
  H  102  1  0.40060500  0.74612100  0.02185600  1
  H  103  1  0.26357200  0.59744400  0.01187800  1
  H  104  1  0.25891000  0.60416200  0.98309100  1
  H  111  1  0.03910600  0.31244600  0.33533100  1
  H  120  1  0.96577500  0.33532300  0.31245500  1
  H  123  1  0.96379900  0.35119500  0.35387200  1
  H  124  1  0.94925700  0.33187800  0.37157100  1
  H  125  1  0.05574800  0.37145500  0.33180500  1
  H  126  1  0.04120200  0.35381900  0.35113300  1
  H  127  1  0.01187300  0.40743100  0.26353500  1
  H  128  1  0.98308700  0.40070800  0.25887000  1
  H  129  1  0.99300600  0.26361400  0.40749700  1
  H  130  1  0.02179400  0.25894300  0.40078700  1
  H  137  1  0.03912600  0.69249200  0.66967100  1
  H  146  1  0.96579700  0.66964900  0.69249500  1
  H  149  1  0.96369700  0.65379200  0.65114800  1
  H  150  1  0.94920600  0.67311100  0.63345100  1
  H  151  1  0.05567000  0.63339200  0.67310300  1
  H  152  1  0.04119300  0.65111700  0.65378100  1
  H  153  1  0.01184200  0.59748100  0.74138200  1
  H  154  1  0.98305800  0.60422400  0.74604200  1
  H  155  1  0.99309200  0.74139300  0.59750500  1
  H  156  1  0.02187200  0.74606000  0.60426100  1
  H  163  1  0.96577300  0.69249500  0.33530000  1
  H  172  1  0.03911200  0.66958700  0.31246400  1
  H  175  1  0.04107900  0.65377500  0.35389400  1
  H  176  1  0.05567500  0.67308300  0.37153200  1
  H  177  1  0.94923900  0.63338300  0.33188000  1
  H  178  1  0.96382300  0.65105800  0.35118200  1
  H  179  1  0.99297500  0.59749000  0.26355000  1
  H  180  1  0.02176900  0.60418600  0.25890100  1
  H  181  1  0.01186700  0.74147400  0.40737400  1
  H  182  1  0.98308200  0.74612100  0.40064400  1
  H  189  1  0.96579200  0.31245300  0.66960500  1
  H  198  1  0.03911700  0.33525700  0.69248600  1
  H  201  1  0.04111400  0.35116200  0.65106000  1
  H  202  1  0.05564700  0.33184200  0.63335900  1
  H  203  1  0.94919700  0.37148800  0.67309800  1
  H  204  1  0.96373000  0.35382800  0.65378100  1
  H  205  1  0.99307000  0.40736900  0.74145800  1
  H  206  1  0.02184700  0.40060900  0.74612100  1
  H  207  1  0.01187100  0.26357200  0.59744900  1
  H  208  1  0.98308300  0.25891000  0.60416700  1
  H  215  1  0.33525400  0.03910400  0.31242400  1
  H  224  1  0.31246800  0.96577100  0.33534000  1
  H  227  1  0.35389900  0.96384200  0.35120600  1
  H  228  1  0.37161300  0.94931300  0.33189300  1
  H  229  1  0.33176800  0.05577000  0.37143500  1
  H  230  1  0.35109800  0.04123100  0.35379300  1
  H  231  1  0.26352600  0.01186400  0.40743800  1
  H  232  1  0.25887500  0.98307400  0.40072400  1
  H  233  1  0.40743700  0.99306800  0.26355700  1
  H  234  1  0.40069100  0.02185000  0.25889200  1
  H  241  1  0.66960300  0.03913200  0.69248100  1
  H  250  1  0.69250300  0.96580600  0.66966700  1
  H  253  1  0.65116500  0.96367100  0.65380500  1
  H  254  1  0.63348200  0.94916600  0.67312500  1
  H  255  1  0.67306800  0.05565800  0.63338300  1
  H  256  1  0.65374600  0.04117500  0.65110600  1
  H  257  1  0.74136800  0.01185600  0.59749000  1
  H  258  1  0.74604000  0.98307600  0.60423700  1
  H  259  1  0.59746200  0.99303900  0.74136000  1
  H  260  1  0.60418900  0.02182400  0.74603300  1
  H  267  1  0.33534700  0.96577100  0.69248100  1
  H  276  1  0.31244800  0.03910700  0.66959900  1
  H  279  1  0.35387000  0.04110800  0.65378400  1
  H  280  1  0.37149000  0.05571500  0.67309800  1
  H  281  1  0.33190200  0.94925400  0.63336800  1
  H  282  1  0.35120400  0.96384300  0.65104400  1
  H  283  1  0.26355500  0.99296700  0.59749200  1
  H  284  1  0.25889400  0.02175900  0.60419500  1
  H  285  1  0.40739300  0.01192200  0.74145000  1
  H  286  1  0.40069300  0.98312700  0.74609500  1
  H  293  1  0.66965800  0.96579700  0.31242600  1
  H  302  1  0.69246800  0.03912200  0.33527200  1
  H  305  1  0.65102900  0.04107400  0.35117500  1
  H  306  1  0.63331300  0.05560100  0.33186200  1
  H  307  1  0.67312300  0.94917500  0.37146100  1
  H  308  1  0.65380500  0.96370400  0.35379800  1
  H  309  1  0.74146100  0.99307000  0.40736900  1
  H  310  1  0.74611000  0.02185300  0.40061800  1
  H  311  1  0.59748600  0.01182900  0.26352900  1
  H  312  1  0.60423300  0.98304700  0.25886800  1
  H  319  1  0.81609500  0.84103600  0.53990600  1
  H  328  1  0.84104900  0.81611700  0.46504300  1
  H  331  1  0.85484300  0.85818700  0.46538900  1
  H  332  1  0.83499700  0.87400000  0.44922400  1
  H  333  1  0.87383100  0.83492800  0.55587500  1
  H  334  1  0.85810300  0.85479100  0.53969300  1
  H  335  1  0.89100900  0.75271000  0.51942800  1
  H  336  1  0.88569800  0.74942300  0.49004500  1
  H  337  1  0.75271800  0.89097400  0.48550100  1
  H  338  1  0.74943700  0.88560900  0.51488200  1
  H  345  1  0.18888100  0.16390100  0.53987300  1
  H  354  1  0.16390000  0.18888500  0.46504500  1
  H  357  1  0.15012600  0.14689500  0.46523700  1
  H  358  1  0.16998600  0.13115800  0.44905300  1
  H  359  1  0.13108700  0.16997800  0.55580300  1
  H  360  1  0.14685800  0.15011300  0.53964000  1
  H  361  1  0.11409700  0.25228600  0.51954900  1
  H  362  1  0.11943800  0.25558400  0.49016600  1
  H  363  1  0.25228200  0.11409700  0.48537100  1
  H  364  1  0.25558100  0.11943300  0.51475500  1
  H  371  1  0.18883300  0.84106200  0.46503900  1
  H  380  1  0.16387300  0.81609500  0.53988600  1
  H  383  1  0.15010900  0.85815800  0.53958700  1
  H  384  1  0.16994200  0.87389400  0.55581600  1
  H  385  1  0.13095200  0.83501400  0.44918400  1
  H  386  1  0.14675100  0.85483700  0.46538600  1
  H  387  1  0.11377000  0.75276500  0.48549700  1
  H  388  1  0.11913300  0.74947000  0.51486200  1
  H  389  1  0.25222500  0.89103900  0.51947500  1
  H  390  1  0.25552000  0.88569100  0.49010900  1
  H  397  1  0.81606000  0.16389100  0.46504600  1
  H  406  1  0.84102200  0.18883500  0.53988200  1
  H  409  1  0.85482400  0.14676400  0.53956100  1
  H  410  1  0.83498800  0.13094500  0.55573000  1
  H  411  1  0.87378900  0.16998100  0.44905500  1
  H  412  1  0.85807500  0.15011800  0.46525600  1
  H  413  1  0.89095800  0.25225500  0.48544000  1
  H  414  1  0.88560700  0.25554900  0.51480800  1
  H  415  1  0.75275100  0.11381600  0.51944000  1
  H  416  1  0.74943400  0.11915800  0.49006700  1
  H  423  1  0.53988700  0.81607300  0.84103600  1
  H  432  1  0.46503900  0.84104200  0.81609100  1
  H  435  1  0.46536700  0.85483200  0.85815600  1
  H  436  1  0.44919700  0.83499200  0.87397100  1
  H  437  1  0.55587300  0.87380000  0.83492800  1
  H  438  1  0.53967300  0.85809000  0.85479300  1
  H  439  1  0.51949200  0.89090100  0.75266200  1
  H  440  1  0.49011100  0.88559800  0.74935900  1
  H  441  1  0.48546800  0.75271800  0.89098500  1
  H  442  1  0.51484900  0.74943200  0.88562300  1
  H  449  1  0.53986900  0.18886300  0.16390700  1
  H  458  1  0.46503200  0.16390700  0.18887700  1
  H  461  1  0.46522200  0.15013000  0.14688300  1
  H  462  1  0.44904600  0.16999800  0.13115100  1
  H  463  1  0.55577600  0.13105200  0.16995900  1
  H  464  1  0.53962700  0.14685000  0.15010500  1
  H  465  1  0.51948100  0.11397700  0.25223100  1
  H  466  1  0.49010300  0.11934200  0.25552900  1
  H  467  1  0.48538300  0.25229000  0.11411000  1
  H  468  1  0.51476800  0.25558100  0.11945100  1
  H  475  1  0.46503400  0.18883700  0.84106200  1
  H  484  1  0.53987300  0.16386600  0.81607700  1
  H  487  1  0.53958300  0.15010500  0.85813600  1
  H  488  1  0.55581600  0.16993300  0.87387300  1
  H  489  1  0.44917100  0.13096300  0.83501200  1
  H  490  1  0.46538400  0.14675000  0.85483500  1
  H  491  1  0.48544000  0.11383500  0.75273200  1
  H  492  1  0.51480500  0.11918900  0.74942800  1
  H  493  1  0.51948300  0.25221400  0.89104000  1
  H  494  1  0.49011600  0.25551300  0.88570000  1
  H  501  1  0.46503900  0.81608000  0.16389900  1
  H  510  1  0.53989100  0.84104400  0.18880800  1
  H  513  1  0.53954300  0.85484600  0.14673300  1
  H  514  1  0.55570600  0.83500500  0.13091600  1
  H  515  1  0.44905200  0.87380900  0.16999900  1
  H  516  1  0.46523700  0.85808800  0.15013100  1
  H  517  1  0.48551000  0.89105700  0.25222500  1
  H  518  1  0.51488200  0.88571100  0.25549400  1
  H  519  1  0.51942200  0.75275800  0.11382800  1
  H  520  1  0.49005000  0.74944500  0.11917700  1
  H  527  1  0.84102900  0.53989500  0.81609300  1
  H  536  1  0.81611000  0.46503400  0.84104900  1
  H  539  1  0.85818000  0.46537700  0.85484100  1
  H  540  1  0.87399300  0.44921300  0.83499500  1
  H  541  1  0.83492600  0.55586600  0.87383100  1
  H  542  1  0.85478800  0.53968200  0.85810300  1
  H  543  1  0.75270600  0.51942000  0.89101300  1
  H  544  1  0.74941900  0.49003900  0.88570000  1
  H  545  1  0.89096900  0.48549200  0.75271800  1
  H  546  1  0.88560100  0.51487100  0.74943600  1
  H  553  1  0.16390100  0.53986200  0.18888500  1
  H  562  1  0.18888500  0.46503400  0.16390400  1
  H  565  1  0.14689500  0.46522200  0.15013400  1
  H  566  1  0.13115900  0.44904100  0.16999600  1
  H  567  1  0.16997300  0.55579200  0.13109200  1
  H  568  1  0.15010900  0.53962700  0.14686400  1
  H  569  1  0.25228200  0.51954100  0.11410000  1
  H  570  1  0.25558300  0.49016000  0.11944100  1
  H  571  1  0.11409500  0.48536300  0.25229000  1
  H  572  1  0.11943200  0.51474800  0.25558600  1
  H  579  1  0.84106800  0.46503000  0.18883000  1
  H  588  1  0.81609900  0.53987800  0.16387200  1
  H  591  1  0.85816100  0.53957600  0.15010500  1
  H  592  1  0.87389700  0.55580500  0.16993700  1
  H  593  1  0.83501400  0.44917600  0.13094800  1
  H  594  1  0.85483700  0.46537700  0.14674700  1
  H  595  1  0.75276500  0.48549300  0.11376900  1
  H  596  1  0.74947000  0.51485600  0.11913300  1
  H  597  1  0.89104200  0.51946800  0.25222200  1
  H  598  1  0.88569500  0.49010000  0.25551600  1
  H  605  1  0.16389400  0.46503700  0.81606700  1
  H  614  1  0.18883500  0.53987600  0.84103100  1
  H  617  1  0.14676500  0.53955000  0.85483500  1
  H  618  1  0.13094300  0.55571900  0.83499900  1
  H  619  1  0.16998800  0.44904600  0.87379600  1
  H  620  1  0.15012400  0.46524600  0.85808200  1
  H  621  1  0.25226000  0.48543700  0.89096300  1
  H  622  1  0.25555300  0.51480500  0.88561400  1
  H  623  1  0.11381800  0.51943100  0.75276200  1
  H  624  1  0.11916000  0.49005900  0.74944300  1
  H  631  1  0.43819000  0.23071600  0.84652100  1
  H  638  1  0.39692300  0.31197100  0.94837500  1
  H  639  1  0.35353400  0.24913600  0.95677000  1
  H  640  1  0.47055700  0.21302300  0.91408700  1
  H  659  1  0.56672400  0.77416100  0.84654500  1
  H  666  1  0.60800700  0.69301300  0.94843900  1
  H  667  1  0.65144200  0.75580100  0.95679900  1
  H  668  1  0.53442100  0.79198100  0.91410700  1
  H  687  1  0.56673100  0.23075800  0.15842200  1
  H  694  1  0.60795600  0.31197200  0.05653100  1
  H  695  1  0.65132100  0.24914900  0.04813700  1
  H  696  1  0.53430500  0.21305600  0.09088900  1
  H  715  1  0.43822600  0.77410700  0.15839800  1
  H  722  1  0.39692300  0.69305900  0.05644900  1
  H  723  1  0.35343300  0.75580900  0.04820100  1
  H  724  1  0.47046000  0.79204100  0.09083400  1
  H  743  1  0.84652100  0.43818200  0.23071400  1
  H  750  1  0.94837100  0.39691600  0.31197400  1
  H  751  1  0.95676600  0.35352300  0.24914200  1
  H  752  1  0.91408700  0.47054400  0.21302100  1
  H  771  1  0.84653400  0.56673700  0.77416800  1
  H  778  1  0.94843400  0.60800700  0.69302200  1
  H  779  1  0.95679200  0.65144900  0.75580500  1
  H  780  1  0.91409400  0.53443500  0.79199700  1
  H  799  1  0.15841200  0.56672000  0.23076800  1
  H  806  1  0.05652700  0.60795900  0.31198200  1
  H  807  1  0.04813100  0.65131500  0.24915500  1
  H  808  1  0.09087700  0.53429400  0.21307400  1
  H  827  1  0.15838800  0.43823000  0.77410400  1
  H  834  1  0.05643900  0.39692300  0.69305900  1
  H  835  1  0.04819000  0.35343700  0.75581200  1
  H  836  1  0.09082600  0.47046700  0.79203400  1
  H  855  1  0.23072400  0.84651400  0.43819500  1
  H  862  1  0.31198000  0.94837000  0.39693200  1
  H  863  1  0.24915100  0.95675500  0.35353200  1
  H  864  1  0.21302100  0.91408100  0.47055200  1
  H  883  1  0.77417400  0.84654500  0.56675100  1
  H  890  1  0.69302200  0.94844100  0.60802200  1
  H  891  1  0.75580700  0.95680800  0.65145800  1
  H  892  1  0.79199400  0.91410500  0.53444300  1
  H  911  1  0.23075800  0.15840900  0.56673500  1
  H  918  1  0.31197400  0.05652600  0.60797200  1
  H  919  1  0.24914400  0.04812100  0.65132100  1
  H  920  1  0.21307000  0.09087600  0.53430100  1
  H  939  1  0.77409100  0.15838800  0.43824300  1
  H  946  1  0.69304900  0.05643700  0.39693400  1
  H  947  1  0.75579900  0.04819600  0.35344300  1
  H  948  1  0.79202800  0.09082400  0.47047500  1
  H  967  1  0.23072200  0.43816000  0.15840900  1
  H  974  1  0.31201500  0.39692900  0.05657700  1
  H  975  1  0.24915800  0.35360900  0.04809100  1
  H  976  1  0.21310700  0.47062000  0.09086800  1
  H  995  1  0.77415500  0.56669300  0.15838100  1
  H  1002  1  0.69305500  0.60802000  0.05647500  1
  H  1003  1  0.75582900  0.65146600  0.04817100  1
  H  1004  1  0.79202300  0.53443500  0.09081200  1
  H  1023  1  0.23073600  0.56673700  0.84648800  1
  H  1030  1  0.31196900  0.60797600  0.94834900  1
  H  1031  1  0.24914500  0.65133700  0.95676800  1
  H  1032  1  0.21304300  0.53433400  0.91403600  1
  H  1051  1  0.77412900  0.43821000  0.84652000  1
  H  1058  1  0.69303500  0.39694700  0.94846100  1
  H  1059  1  0.75579900  0.35346300  0.95675500  1
  H  1060  1  0.79201400  0.47049100  0.91407400  1
  H  1079  1  0.43818400  0.84650300  0.77417200  1
  H  1086  1  0.39695300  0.94840400  0.69296000  1
  H  1087  1  0.35354900  0.95676600  0.75578800  1
  H  1088  1  0.47057700  0.91404500  0.79189800  1
  H  1107  1  0.56671300  0.84651200  0.23078200  1
  H  1114  1  0.60800000  0.94843400  0.31187900  1
  H  1115  1  0.65144000  0.95675300  0.24910500  1
  H  1116  1  0.53441900  0.91406700  0.21292000  1
  H  1135  1  0.56671300  0.15838500  0.77419000  1
  H  1142  1  0.60799000  0.05652700  0.69295400  1
  H  1143  1  0.65138900  0.04814900  0.75578300  1
  H  1144  1  0.53437500  0.09081800  0.79192400  1
  H  1163  1  0.43818800  0.15839700  0.23078200  1
  H  1170  1  0.39688800  0.05648700  0.31189700  1
  H  1171  1  0.35349900  0.04812600  0.24909400  1
  H  1172  1  0.47053500  0.09085100  0.21298400  1
  H  1191  1  0.84648100  0.23073500  0.56674000  1
  H  1198  1  0.94834200  0.31196900  0.60797900  1
  H  1199  1  0.95675900  0.24914700  0.65134100  1
  H  1200  1  0.91403000  0.21304100  0.53434200  1
  H  1219  1  0.84651800  0.77413500  0.43821700  1
  H  1226  1  0.94845900  0.69304000  0.39695400  1
  H  1227  1  0.95675300  0.75580300  0.35347000  1
  H  1228  1  0.91407200  0.79201900  0.47049800  1
  H  1247  1  0.15840600  0.23072200  0.43817000  1
  H  1254  1  0.05657300  0.31201100  0.39693400  1
  H  1255  1  0.04808900  0.24915300  0.35361700  1
  H  1256  1  0.09086500  0.21310900  0.47062900  1
  H  1275  1  0.15838100  0.77415300  0.56670000  1
  H  1282  1  0.05647400  0.69305300  0.60802300  1
  H  1283  1  0.04816900  0.75582500  0.65146900  1
  H  1284  1  0.09081300  0.79202100  0.53444100  1
  H  1303  1  0.56229200  0.77383600  0.15070800  1
  H  1310  1  0.59010600  0.69416800  0.04599400  1
  H  1311  1  0.64775300  0.74531400  0.04594700  1
  H  1312  1  0.53446800  0.80237100  0.08467600  1
  H  1331  1  0.44252600  0.23113600  0.15081100  1
  H  1338  1  0.41476500  0.31072900  0.04602700  1
  H  1339  1  0.35715900  0.25955600  0.04592400  1
  H  1340  1  0.47046500  0.20261600  0.08482100  1
  H  1359  1  0.44260900  0.77384700  0.85420800  1
  H  1366  1  0.41479500  0.69418100  0.95892900  1
  H  1367  1  0.35716800  0.74533000  0.95897700  1
  H  1368  1  0.47046000  0.80235800  0.92023800  1
  H  1387  1  0.56233800  0.23116000  0.85412500  1
  H  1394  1  0.59012300  0.31072700  0.95889800  1
  H  1395  1  0.64780800  0.25963500  0.95893300  1
  H  1396  1  0.53454500  0.20255900  0.92013000  1
  H  1415  1  0.15070900  0.56229900  0.77383200  1
  H  1422  1  0.04598700  0.59010400  0.69417600  1
  H  1423  1  0.04594300  0.64775600  0.74531500  1
  H  1424  1  0.08468100  0.53447900  0.80238000  1
  H  1443  1  0.15080700  0.44251400  0.23113600  1
  H  1450  1  0.04602300  0.41475800  0.31072900  1
  H  1451  1  0.04591900  0.35714600  0.25956000  1
  H  1452  1  0.08481800  0.47045100  0.20261000  1
  H  1471  1  0.85420400  0.44262400  0.77384900  1
  H  1478  1  0.95892000  0.41479800  0.69417600  1
  H  1479  1  0.95896600  0.35717900  0.74533600  1
  H  1480  1  0.92023600  0.47047800  0.80235100  1
  H  1499  1  0.85413100  0.56232700  0.23116200  1
  H  1506  1  0.95889400  0.59012600  0.31073800  1
  H  1507  1  0.95892700  0.64780400  0.25964000  1
  H  1508  1  0.92013900  0.53453400  0.20257200  1
  H  1527  1  0.77381800  0.15071200  0.56230300  1
  H  1534  1  0.69415900  0.04599000  0.59011000  1
  H  1535  1  0.74529000  0.04595800  0.64776900  1
  H  1536  1  0.80237100  0.08468100  0.53449400  1
  H  1555  1  0.23112000  0.15080500  0.44251700  1
  H  1562  1  0.31071600  0.04602800  0.41475600  1
  H  1563  1  0.25953400  0.04590800  0.35715700  1
  H  1564  1  0.20260500  0.08481600  0.47046700  1
  H  1583  1  0.77386000  0.85420800  0.44263100  1
  H  1590  1  0.69417900  0.95891200  0.41478700  1
  H  1591  1  0.74535200  0.95897100  0.35718100  1
  H  1592  1  0.80234600  0.92024500  0.47049100  1
  H  1611  1  0.23117300  0.85412500  0.56233200  1
  H  1618  1  0.31074500  0.95889400  0.59012400  1
  H  1619  1  0.25965700  0.95892000  0.64781100  1
  H  1620  1  0.20257400  0.92013300  0.53454700  1
  H  1639  1  0.77378500  0.56232300  0.85419100  1
  H  1646  1  0.69415600  0.59012400  0.95894400  1
  H  1647  1  0.74532800  0.64774500  0.95899100  1
  H  1648  1  0.80233500  0.53445200  0.92019800  1
  H  1667  1  0.23117700  0.44255800  0.85411100  1
  H  1674  1  0.31075400  0.41480000  0.95888300  1
  H  1675  1  0.25963700  0.35714600  0.95895600  1
  H  1676  1  0.20260300  0.47041400  0.92009900  1
  H  1695  1  0.77379900  0.44263300  0.15074000  1
  H  1702  1  0.69420300  0.41480600  0.04597800  1
  H  1703  1  0.74531900  0.35715000  0.04598600  1
  H  1704  1  0.80241000  0.47040900  0.08471400  1
  H  1723  1  0.23113100  0.56239600  0.15080700  1
  H  1730  1  0.31072500  0.59012400  0.04603100  1
  H  1731  1  0.25958400  0.64775800  0.04592300  1
  H  1732  1  0.20260300  0.53446300  0.08482400  1
  H  1751  1  0.56234300  0.15071900  0.23108900  1
  H  1758  1  0.59008600  0.04598900  0.31074500  1
  H  1759  1  0.64773100  0.04591400  0.25960900  1
  H  1760  1  0.53444300  0.08471600  0.20256300  1
  H  1779  1  0.44261100  0.15079200  0.77377500  1
  H  1786  1  0.41477400  0.04599800  0.69422900  1
  H  1787  1  0.35711000  0.04599700  0.74533600  1
  H  1788  1  0.47037700  0.08476900  0.80238800  1
  H  1807  1  0.44260500  0.85417300  0.23118600  1
  H  1814  1  0.41483900  0.95895300  0.31076900  1
  H  1815  1  0.35716800  0.95895300  0.25965500  1
  H  1816  1  0.47043400  0.92016100  0.20256800  1
  H  1835  1  0.56238200  0.85411400  0.77375900  1
  H  1842  1  0.59014600  0.95889800  0.69417800  1
  H  1843  1  0.64776200  0.95899500  0.74534800  1
  H  1844  1  0.53446500  0.92009700  0.80230500  1
  H  1863  1  0.15074100  0.77380100  0.44263800  1
  H  1870  1  0.04597700  0.69420700  0.41481100  1
  H  1871  1  0.04598500  0.74532500  0.35715500  1
  H  1872  1  0.08471600  0.80241200  0.47041600  1
  H  1891  1  0.15080200  0.23113600  0.56240600  1
  H  1898  1  0.04602300  0.31072900  0.59012800  1
  H  1899  1  0.04591600  0.25958700  0.64776400  1
  H  1900  1  0.08482100  0.20260700  0.53447200  1
  H  1919  1  0.85419100  0.77378600  0.56233000  1
  H  1926  1  0.95894200  0.69415600  0.59012400  1
  H  1927  1  0.95899100  0.74532500  0.64774900  1
  H  1928  1  0.92019600  0.80233800  0.53445900  1
  H  1947  1  0.85410500  0.23117100  0.44256300  1
  H  1954  1  0.95888100  0.31074700  0.41480600  1
  H  1955  1  0.95895300  0.25962900  0.35715200  1
  H  1956  1  0.92009300  0.20259600  0.47042100  1
  C  1  1  0.32412400  0.34310200  0.00272200  1
  C  2  1  0.30939900  0.34623300  0.02413900  1
  C  3  1  0.29181500  0.36516500  0.02656100  1
  C  4  1  0.28522000  0.37898600  0.00541300  1
  C  5  1  0.29779200  0.37421200  0.98291800  1
  C  6  1  0.31895800  0.35877000  0.98224700  1
  C  9  1  0.34310500  0.32409600  0.00217700  1
  C  10  1  0.35876400  0.31890900  0.02265200  1
  C  11  1  0.37419600  0.29773700  0.02197800  1
  C  12  1  0.37895600  0.28516700  0.99948000  1
  C  13  1  0.36514300  0.29177500  0.97833400  1
  C  14  1  0.34620900  0.30935800  0.98076300  1
  C  27  1  0.68083500  0.66184900  0.00274700  1
  C  28  1  0.69557900  0.65876900  0.02415800  1
  C  29  1  0.71315000  0.63982600  0.02660000  1
  C  30  1  0.71976300  0.62599800  0.00546500  1
  C  31  1  0.70718200  0.63073400  0.98296800  1
  C  32  1  0.68601200  0.64616900  0.98228500  1
  C  35  1  0.66184300  0.68083700  0.00218800  1
  C  36  1  0.64616000  0.68600500  0.02265000  1
  C  37  1  0.63072300  0.70717500  0.02197200  1
  C  38  1  0.62597600  0.71974800  0.99947300  1
  C  39  1  0.63980400  0.71313900  0.97833400  1
  C  40  1  0.65875400  0.69557500  0.98077600  1
  C  53  1  0.68083900  0.34308100  0.00216900  1
  C  54  1  0.69557700  0.34617800  0.98075500  1
  C  55  1  0.71315500  0.36511500  0.97832500  1
  C  56  1  0.71978000  0.37892300  0.99947100  1
  C  57  1  0.70720100  0.37417400  0.02196500  1
  C  58  1  0.68601600  0.35875700  0.02263600  1
  C  61  1  0.66183400  0.32410000  0.00271500  1
  C  62  1  0.64617300  0.31893100  0.98223400  1
  C  63  1  0.63072900  0.29776400  0.98290500  1
  C  64  1  0.62595000  0.28519600  0.00540100  1
  C  65  1  0.63975200  0.29180800  0.02655400  1
  C  66  1  0.65869000  0.30938800  0.02414000  1
  C  79  1  0.32409500  0.66182100  0.00219500  1
  C  80  1  0.30938000  0.65869500  0.98077000  1
  C  81  1  0.29180400  0.63975600  0.97834100  1
  C  82  1  0.28519600  0.62593500  0.99948400  1
  C  83  1  0.29775900  0.63070500  0.02198300  1
  C  84  1  0.31892300  0.64614900  0.02266700  1
  C  87  1  0.34307600  0.68082600  0.00274900  1
  C  88  1  0.35875500  0.68600700  0.98228700  1
  C  89  1  0.37417800  0.70718600  0.98296600  1
  C  90  1  0.37891100  0.71977200  0.00546200  1
  C  91  1  0.36509100  0.71315000  0.02660000  1
  C  92  1  0.34617100  0.69555700  0.02416700  1
  C  105  1  0.00271800  0.32411700  0.34310700  1
  C  106  1  0.02413600  0.30939300  0.34623900  1
  C  107  1  0.02655800  0.29181000  0.36517200  1
  C  108  1  0.00541000  0.28521300  0.37899100  1
  C  109  1  0.98291500  0.29778500  0.37422000  1
  C  110  1  0.98224300  0.31895100  0.35877500  1
  C  113  1  0.00217300  0.34309800  0.32410000  1
  C  114  1  0.02264800  0.35875700  0.31891200  1
  C  115  1  0.02197400  0.37418700  0.29773900  1
  C  116  1  0.99947600  0.37894700  0.28516900  1
  C  117  1  0.97832800  0.36513400  0.29177900  1
  C  118  1  0.98075900  0.34620200  0.30936400  1
  C  131  1  0.00274400  0.68083400  0.66185200  1
  C  132  1  0.02415600  0.69557700  0.65877200  1
  C  133  1  0.02659900  0.71314600  0.63983000  1
  C  134  1  0.00546400  0.71975900  0.62599900  1
  C  135  1  0.98296600  0.70717900  0.63073600  1
  C  136  1  0.98228400  0.68600900  0.64617100  1
  C  139  1  0.00218400  0.66184100  0.68084100  1
  C  140  1  0.02264600  0.64616000  0.68600900  1
  C  141  1  0.02196600  0.63072300  0.70718000  1
  C  142  1  0.99946700  0.62597600  0.71975400  1
  C  143  1  0.97833000  0.63980400  0.71314400  1
  C  144  1  0.98077000  0.65875400  0.69557900  1
  C  157  1  0.00216600  0.68084300  0.34308900  1
  C  158  1  0.98075400  0.69558300  0.34618500  1
  C  159  1  0.97832300  0.71316100  0.36512300  1
  C  160  1  0.99946900  0.71978300  0.37892900  1
  C  161  1  0.02196400  0.70720600  0.37417800  1
  C  162  1  0.02263400  0.68602000  0.35876200  1
  C  165  1  0.00271200  0.66183800  0.32410600  1
  C  166  1  0.98223000  0.64617700  0.31893800  1
  C  167  1  0.98290200  0.63073100  0.29777400  1
  C  168  1  0.00539600  0.62595200  0.28520600  1
  C  169  1  0.02654900  0.63975200  0.29181500  1
  C  170  1  0.02413600  0.65869200  0.30939300  1
  C  183  1  0.00218400  0.32409800  0.66182300  1
  C  184  1  0.98076100  0.30938200  0.65869700  1
  C  185  1  0.97833200  0.29180600  0.63976000  1
  C  186  1  0.99947400  0.28519800  0.62593900  1
  C  187  1  0.02197400  0.29776300  0.63070900  1
  C  188  1  0.02265600  0.31892900  0.64615100  1
  C  191  1  0.00273800  0.34308000  0.68082800  1
  C  192  1  0.98227600  0.35875900  0.68600900  1
  C  193  1  0.98295700  0.37418100  0.70718800  1
  C  194  1  0.00545200  0.37891400  0.71977200  1
  C  195  1  0.02659000  0.36509300  0.71315300  1
  C  196  1  0.02415600  0.34617200  0.69555900  1
  C  209  1  0.34308500  0.00273400  0.32411300  1
  C  210  1  0.34618300  0.02414700  0.30937700  1
  C  211  1  0.36511300  0.02658400  0.29179500  1
  C  212  1  0.37894500  0.00544700  0.28519100  1
  C  213  1  0.37420300  0.98295100  0.29777400  1
  C  214  1  0.35877700  0.98227600  0.31895300  1
  C  217  1  0.32408900  0.00217800  0.34310200  1
  C  218  1  0.31889000  0.02265600  0.35875500  1
  C  219  1  0.29772200  0.02197300  0.37419000  1
  C  220  1  0.28516300  0.99947100  0.37895600  1
  C  221  1  0.29178200  0.97832300  0.36514600  1
  C  222  1  0.30936700  0.98075500  0.34621500  1
  C  235  1  0.66183200  0.00273500  0.68083700  1
  C  236  1  0.65872500  0.02415000  0.69557200  1
  C  237  1  0.63978200  0.02658100  0.71314800  1
  C  238  1  0.62596600  0.00543300  0.71975200  1
  C  239  1  0.63072700  0.98293700  0.70718000  1
  C  240  1  0.64616900  0.98226200  0.68601600  1
  C  243  1  0.68082800  0.00218400  0.66185100  1
  C  244  1  0.68598900  0.02264600  0.64616400  1
  C  245  1  0.70716200  0.02197300  0.63073200  1
  C  246  1  0.71974300  0.99947800  0.62598700  1
  C  247  1  0.71314100  0.97833900  0.63981800  1
  C  248  1  0.69557700  0.98077700  0.65876900  1
  C  261  1  0.34309800  0.00217700  0.68084100  1
  C  262  1  0.34621700  0.98076100  0.69557400  1
  C  263  1  0.36515400  0.97834500  0.71315500  1
  C  264  1  0.37894500  0.99950000  0.71977600  1
  C  265  1  0.37417400  0.02199400  0.70720400  1
  C  266  1  0.35875300  0.02265700  0.68602300  1
  C  269  1  0.32410900  0.00271500  0.66184000  1
  C  270  1  0.31894900  0.98223600  0.64617500  1
  C  271  1  0.29778100  0.98290000  0.63073200  1
  C  272  1  0.28520600  0.00539100  0.62595500  1
  C  273  1  0.29180800  0.02654400  0.63976200  1
  C  274  1  0.30938600  0.02413200  0.65870100  1
  C  287  1  0.66183400  0.00217300  0.32409100  1
  C  288  1  0.65873400  0.98075500  0.30936200  1
  C  289  1  0.63979800  0.97831600  0.29178600  1
  C  290  1  0.62596800  0.99945100  0.28517800  1
  C  291  1  0.63071400  0.02195100  0.29775000  1
  C  292  1  0.64614600  0.02263400  0.31892700  1
  C  295  1  0.68083200  0.00273300  0.34307600  1
  C  296  1  0.68602000  0.98226900  0.35875000  1
  C  297  1  0.70719500  0.98295300  0.37417800  1
  C  298  1  0.71977200  0.00545300  0.37891600  1
  C  299  1  0.71314400  0.02659200  0.36510100  1
  C  300  1  0.69555000  0.02415800  0.34618000  1
  C  313  1  0.82650400  0.84551600  0.50247300  1
  C  314  1  0.81193200  0.84978300  0.52386500  1
  C  315  1  0.79237100  0.86683600  0.52442600  1
  C  316  1  0.78314400  0.87540700  0.50160000  1
  C  317  1  0.79817800  0.87297100  0.48030900  1
  C  318  1  0.82105000  0.86022700  0.48138800  1
  C  321  1  0.84550700  0.82649600  0.50248400  1
  C  322  1  0.86019700  0.82101500  0.52357500  1
  C  323  1  0.87291800  0.79813500  0.52465600  1
  C  324  1  0.87536900  0.78311800  0.50335600  1
  C  325  1  0.86681400  0.79235900  0.48052700  1
  C  326  1  0.84975900  0.81192000  0.48109400  1
  C  339  1  0.17846400  0.15945600  0.50244200  1
  C  340  1  0.19306400  0.15519900  0.52381400  1
  C  341  1  0.21264500  0.13816400  0.52435500  1
  C  342  1  0.22185600  0.12962200  0.50150800  1
  C  343  1  0.20680600  0.13206400  0.48023000  1
  C  344  1  0.18392200  0.14477700  0.48133800  1
  C  347  1  0.15945400  0.17846600  0.50247500  1
  C  348  1  0.14476800  0.18391900  0.52357700  1
  C  349  1  0.13205600  0.20680400  0.52468700  1
  C  350  1  0.12961500  0.22185600  0.50340900  1
  C  351  1  0.13815400  0.21263900  0.48056400  1
  C  352  1  0.15519500  0.19306500  0.48110400  1
  C  365  1  0.17843200  0.84550700  0.50247700  1
  C  366  1  0.19302100  0.84976700  0.48109600  1
  C  367  1  0.21259000  0.86681600  0.48055000  1
  C  368  1  0.22181500  0.87535400  0.50338900  1
  C  369  1  0.20678200  0.87290500  0.52467400  1
  C  370  1  0.18389700  0.86019400  0.52357700  1
  C  373  1  0.15941300  0.82650200  0.50245100  1
  C  374  1  0.14471300  0.82105200  0.48135700  1
  C  375  1  0.13196000  0.79818500  0.48027600  1
  C  376  1  0.12950200  0.78315900  0.50156700  1
  C  377  1  0.13807100  0.79237700  0.52439500  1
  C  378  1  0.15513400  0.81193100  0.52383900  1
  C  391  1  0.82647800  0.15941100  0.50247300  1
  C  392  1  0.81189900  0.15514400  0.48108900  1
  C  393  1  0.79234600  0.13808400  0.48052900  1
  C  394  1  0.78313500  0.12949600  0.50335600  1
  C  395  1  0.79816700  0.13194700  0.52464500  1
  C  396  1  0.82103300  0.14470200  0.52356400  1
  C  399  1  0.84547600  0.17843300  0.50244800  1
  C  400  1  0.86015500  0.18390800  0.48134800  1
  C  401  1  0.87285200  0.20680000  0.48024700  1
  C  402  1  0.87529000  0.22183700  0.50153200  1
  C  403  1  0.86675200  0.21261700  0.52437300  1
  C  404  1  0.84974100  0.19301600  0.52383000  1
  C  417  1  0.50245700  0.82648900  0.84550900  1
  C  418  1  0.52384300  0.81191600  0.84978100  1
  C  419  1  0.52440300  0.79235900  0.86684000  1
  C  420  1  0.50157300  0.78313900  0.87541100  1
  C  421  1  0.48028400  0.79817400  0.87296500  1
  C  422  1  0.48136600  0.82104100  0.86021400  1
  C  425  1  0.50247700  0.84548700  0.82648400  1
  C  426  1  0.52357700  0.86016400  0.82100600  1
  C  427  1  0.52467600  0.87286100  0.79811300  1
  C  428  1  0.50338900  0.87530300  0.78307800  1
  C  429  1  0.48054800  0.86677000  0.79230700  1
  C  430  1  0.48109600  0.84974100  0.81189400  1
  C  443  1  0.50243500  0.17845600  0.15945500  1
  C  444  1  0.52381000  0.19305300  0.15520500  1
  C  445  1  0.52435700  0.21263700  0.13817600  1
  C  446  1  0.50151200  0.22185600  0.12963300  1
  C  447  1  0.48023000  0.20681100  0.13207000  1
  C  448  1  0.48133500  0.18392200  0.14477400  1
  C  451  1  0.50246000  0.15943900  0.17845900  1
  C  452  1  0.52355100  0.14473600  0.18390200  1
  C  453  1  0.52464800  0.13199500  0.20677500  1
  C  454  1  0.50336500  0.12955400  0.22181700  1
  C  455  1  0.48052900  0.13812800  0.21261200  1
  C  456  1  0.48108300  0.15518700  0.19305400  1
  C  469  1  0.50247100  0.17843100  0.84550000  1
  C  470  1  0.48109300  0.19302100  0.84976700  1
  C  471  1  0.48055000  0.21258600  0.86682000  1
  C  472  1  0.50339100  0.22181000  0.87535600  1
  C  473  1  0.52467400  0.20677300  0.87290100  1
  C  474  1  0.52357300  0.18389100  0.86018300  1
  C  477  1  0.50244000  0.15941700  0.82649100  1
  C  478  1  0.48134000  0.14472500  0.82104200  1
  C  479  1  0.48024500  0.13198700  0.79817000  1
  C  480  1  0.50153000  0.12953500  0.78313100  1
  C  481  1  0.52436800  0.13808400  0.79234600  1
  C  482  1  0.52382300  0.15513500  0.81191200  1
  C  495  1  0.50246600  0.82649600  0.15940700  1
  C  496  1  0.48107800  0.81192000  0.15514900  1
  C  497  1  0.48051500  0.79236000  0.13809300  1
  C  498  1  0.50333900  0.78314800  0.12950400  1
  C  499  1  0.52463000  0.79817900  0.13194500  1
  C  500  1  0.52355000  0.82105000  0.14469200  1
  C  503  1  0.50244900  0.84550000  0.17842600  1
  C  504  1  0.48135300  0.86018500  0.18391000  1
  C  505  1  0.48027100  0.87289900  0.20679300  1
  C  506  1  0.50157100  0.87535600  0.22180800  1
  C  507  1  0.52439900  0.86680700  0.21256800  1
  C  508  1  0.52384300  0.84976800  0.19299200  1
  C  521  1  0.84551100  0.50246200  0.82650400  1
  C  522  1  0.84977600  0.52385200  0.81193100  1
  C  523  1  0.86682700  0.52441500  0.79237000  1
  C  524  1  0.87540000  0.50158900  0.78314200  1
  C  525  1  0.87296200  0.48029800  0.79817600  1
  C  526  1  0.86021900  0.48137700  0.82104800  1
  C  529  1  0.82649100  0.50247500  0.84550700  1
  C  530  1  0.82101100  0.52356600  0.86019700  1
  C  531  1  0.79813200  0.52464800  0.87292000  1
  C  532  1  0.78311500  0.50334800  0.87537000  1
  C  533  1  0.79235100  0.48052000  0.86681600  1
  C  534  1  0.81191200  0.48108500  0.84975900  1
  C  547  1  0.15945500  0.50243100  0.17847000  1
  C  548  1  0.15519900  0.52380300  0.19306900  1
  C  549  1  0.13816400  0.52434400  0.21265000  1
  C  550  1  0.12962200  0.50149900  0.22186100  1
  C  551  1  0.13206500  0.48021900  0.20681500  1
  C  552  1  0.14477800  0.48132700  0.18393200  1
  C  555  1  0.17846400  0.50246400  0.15945800  1
  C  556  1  0.18391500  0.52356600  0.14477300  1
  C  557  1  0.20680000  0.52467800  0.13205900  1
  C  558  1  0.22185200  0.50340000  0.12961800  1
  C  559  1  0.21263700  0.48055500  0.13815700  1
  C  560  1  0.19306500  0.48109300  0.15519900  1
  C  573  1  0.84551100  0.50246800  0.17842800  1
  C  574  1  0.84977200  0.48108700  0.19301600  1
  C  575  1  0.86682200  0.48054000  0.21258400  1
  C  576  1  0.87535800  0.50337800  0.22181200  1
  C  577  1  0.87291000  0.52466500  0.20677600  1
  C  578  1  0.86019700  0.52356600  0.18389100  1
  C  581  1  0.82650400  0.50244400  0.15941100  1
  C  582  1  0.82105200  0.48134900  0.14471100  1
  C  583  1  0.79818500  0.48026900  0.13195800  1
  C  584  1  0.78316100  0.50156200  0.12950200  1
  C  585  1  0.79237900  0.52439000  0.13807000  1
  C  586  1  0.81193200  0.52383200  0.15513300  1
  C  599  1  0.15941400  0.50246600  0.82648500  1
  C  600  1  0.15514600  0.48108000  0.81190900  1
  C  601  1  0.13808600  0.48052000  0.79235500  1
  C  602  1  0.12949800  0.50334700  0.78314400  1
  C  603  1  0.13194800  0.52463600  0.79817800  1
  C  604  1  0.14470600  0.52355500  0.82104100  1
  C  607  1  0.17843700  0.50244000  0.84548300  1
  C  608  1  0.18391300  0.48134000  0.86016100  1
  C  609  1  0.20680600  0.48024100  0.87285700  1
  C  610  1  0.22184300  0.50152700  0.87529700  1
  C  611  1  0.21261900  0.52436800  0.86675900  1
  C  612  1  0.19302000  0.52382500  0.84974800  1
  C  625  1  0.45805700  0.22081400  0.87817300  1
  C  626  1  0.45658600  0.22067200  0.90411100  1
  C  627  1  0.43747100  0.23253100  0.91704000  1
  C  628  1  0.41833300  0.24432800  0.90383200  1
  C  629  1  0.41802900  0.24221300  0.87770000  1
  C  630  1  0.43793500  0.23085400  0.86529900  1
  C  632  1  0.40056500  0.25841700  0.91740200  1
  C  633  1  0.40588500  0.28317100  0.92419300  1
  C  634  1  0.39154500  0.29499800  0.94229000  1
  C  635  1  0.37214900  0.28294400  0.95451500  1
  C  636  1  0.36642700  0.25879300  0.94710700  1
  C  637  1  0.38047000  0.24638400  0.92897200  1
  C  653  1  0.54690200  0.78415500  0.87819400  1
  C  654  1  0.54838100  0.78430700  0.90413100  1
  C  655  1  0.56749300  0.77244700  0.91706600  1
  C  656  1  0.58661300  0.76061900  0.90386000  1
  C  657  1  0.58690100  0.76269500  0.87772600  1
  C  658  1  0.56700100  0.77406300  0.86532300  1
  C  660  1  0.60439700  0.74655400  0.91743100  1
  C  661  1  0.59907100  0.72180100  0.92423700  1
  C  662  1  0.61344200  0.70994500  0.94229600  1
  C  663  1  0.63284600  0.72200800  0.95451500  1
  C  664  1  0.63857800  0.74615000  0.94709600  1
  C  665  1  0.62451200  0.75856200  0.92898700  1
  C  681  1  0.54683600  0.22085200  0.12679000  1
  C  682  1  0.54828700  0.22070600  0.10085200  1
  C  683  1  0.56739500  0.23255400  0.08790300  1
  C  684  1  0.58654500  0.24435200  0.10109400  1
  C  685  1  0.58687000  0.24224400  0.12722500  1
  C  686  1  0.56697200  0.23089200  0.13964400  1
  C  688  1  0.60430700  0.25843300  0.08750800  1
  C  689  1  0.59899200  0.28318400  0.08071200  1
  C  690  1  0.61333400  0.29499800  0.06260800  1
  C  691  1  0.63274500  0.28297100  0.05036100  1
  C  692  1  0.63843000  0.25881500  0.05779500  1
  C  693  1  0.62439400  0.24640100  0.07593300  1
  C  709  1  0.45801100  0.78416200  0.12674500  1
  C  710  1  0.45651200  0.78434700  0.10081000  1
  C  711  1  0.43740100  0.77248800  0.08787600  1
  C  712  1  0.41830200  0.76062600  0.10108300  1
  C  713  1  0.41803200  0.76266800  0.12721900  1
  C  714  1  0.43793300  0.77403600  0.13962000  1
  C  716  1  0.40052100  0.74656100  0.08750900  1
  C  717  1  0.40585900  0.72182500  0.08066700  1
  C  718  1  0.39147800  0.70998200  0.06260800  1
  C  719  1  0.37203300  0.72202300  0.05041800  1
  C  720  1  0.36631300  0.74615600  0.05787800  1
  C  721  1  0.38038500  0.75856400  0.07598700  1
  C  737  1  0.87817300  0.45804800  0.22081200  1
  C  738  1  0.90410900  0.45657300  0.22067100  1
  C  739  1  0.91703900  0.43746000  0.23253100  1
  C  740  1  0.90382900  0.41832200  0.24433000  1
  C  741  1  0.87769800  0.41802000  0.24221300  1
  C  742  1  0.86529700  0.43792700  0.23085200  1
  C  744  1  0.91739800  0.40055500  0.25842000  1
  C  745  1  0.92418900  0.40587700  0.28317300  1
  C  746  1  0.94228600  0.39153700  0.29500200  1
  C  747  1  0.95451100  0.37213900  0.28294700  1
  C  748  1  0.94710200  0.36641600  0.25879800  1
  C  749  1  0.92896800  0.38045900  0.24638800  1
  C  765  1  0.87818300  0.54691700  0.78416800  1
  C  766  1  0.90412000  0.54839600  0.78432200  1
  C  767  1  0.91705500  0.56750400  0.77246000  1
  C  768  1  0.90385100  0.58662200  0.76062800  1
  C  769  1  0.87771700  0.58691200  0.76270300  1
  C  770  1  0.86531200  0.56701400  0.77407300  1
  C  772  1  0.91742400  0.60440400  0.74656100  1
  C  773  1  0.92423000  0.59907500  0.72180800  1
  C  774  1  0.94229000  0.61344400  0.70995200  1
  C  775  1  0.95451100  0.63284700  0.72201400  1
  C  776  1  0.94709100  0.63858400  0.74615400  1
  C  777  1  0.92897900  0.62451900  0.75856800  1
  C  793  1  0.12677900  0.54682400  0.22086700  1
  C  794  1  0.10084100  0.54827500  0.22072200  1
  C  795  1  0.08789300  0.56738400  0.23256900  1
  C  796  1  0.10108500  0.58653800  0.24436300  1
  C  797  1  0.12721600  0.58686100  0.24225300  1
  C  798  1  0.13963400  0.56696100  0.23090300  1
  C  800  1  0.08750100  0.60430100  0.25844200  1
  C  801  1  0.08070600  0.59899000  0.28319300  1
  C  802  1  0.06260300  0.61333600  0.29500700  1
  C  803  1  0.05035600  0.63274500  0.28298000  1
  C  804  1  0.05778900  0.63842600  0.25882000  1
  C  805  1  0.07592600  0.62438900  0.24640800  1
  C  821  1  0.12673700  0.45801700  0.78415500  1
  C  822  1  0.10080100  0.45651800  0.78434000  1
  C  823  1  0.08786700  0.43740500  0.77248400  1
  C  824  1  0.10107300  0.41830600  0.76062200  1
  C  825  1  0.12720900  0.41803600  0.76266600  1
  C  826  1  0.13961100  0.43793800  0.77403000  1
  C  828  1  0.08749900  0.40052200  0.74656100  1
  C  829  1  0.08065700  0.40586100  0.72182300  1
  C  830  1  0.06259800  0.39147800  0.70998200  1
  C  831  1  0.05040700  0.37203500  0.72202500  1
  C  832  1  0.05786800  0.36631700  0.74615700  1
  C  833  1  0.07597700  0.38038900  0.75856600  1
  C  849  1  0.22081700  0.87816800  0.45805700  1
  C  850  1  0.22067200  0.90410400  0.45658200  1
  C  851  1  0.23253600  0.91703300  0.43746900  1
  C  852  1  0.24433700  0.90382100  0.41833500  1
  C  853  1  0.24222200  0.87769100  0.41803200  1
  C  854  1  0.23086100  0.86529200  0.43793800  1
  C  856  1  0.25842800  0.91739100  0.40056800  1
  C  857  1  0.28318000  0.92418400  0.40589200  1
  C  858  1  0.29500900  0.94228300  0.39155200  1
  C  859  1  0.28295500  0.95450400  0.37215200  1
  C  860  1  0.25880600  0.94709300  0.36642700  1
  C  861  1  0.24639700  0.92895700  0.38047000  1
  C  877  1  0.78417000  0.87819400  0.54692800  1
  C  878  1  0.78432200  0.90413100  0.54840500  1
  C  879  1  0.77246000  0.91706600  0.56751500  1
  C  880  1  0.76063000  0.90386300  0.58663500  1
  C  881  1  0.76270800  0.87773000  0.58692500  1
  C  882  1  0.77407600  0.86532300  0.56702700  1
  C  884  1  0.74656300  0.91743700  0.60441500  1
  C  885  1  0.72181000  0.92424100  0.59908800  1
  C  886  1  0.70995400  0.94229900  0.61345700  1
  C  887  1  0.72201600  0.95452200  0.63286000  1
  C  888  1  0.74615700  0.94710600  0.63859500  1
  C  889  1  0.75857100  0.92899400  0.62453000  1
  C  905  1  0.22086100  0.12677800  0.54683500  1
  C  906  1  0.22071800  0.10083900  0.54828400  1
  C  907  1  0.23256400  0.08789100  0.56739300  1
  C  908  1  0.24435600  0.10108200  0.58654700  1
  C  909  1  0.24224400  0.12721200  0.58687400  1
  C  910  1  0.23089400  0.13963100  0.56697200  1
  C  912  1  0.25843300  0.08749600  0.60431200  1
  C  913  1  0.28318600  0.08070400  0.59900300  1
  C  914  1  0.29499800  0.06260000  0.61334700  1
  C  915  1  0.28296900  0.05035000  0.63275400  1
  C  916  1  0.25880900  0.05778000  0.63843300  1
  C  917  1  0.24639700  0.07591800  0.62439600  1
  C  933  1  0.78414600  0.12673600  0.45802600  1
  C  934  1  0.78433300  0.10080000  0.45652700  1
  C  935  1  0.77247500  0.08786600  0.43741400  1
  C  936  1  0.76061100  0.10107300  0.41831500  1
  C  937  1  0.76265300  0.12720900  0.41804700  1
  C  938  1  0.77401900  0.13961100  0.43794800  1
  C  940  1  0.74655000  0.08750000  0.40053300  1
  C  941  1  0.72181200  0.08065700  0.40587200  1
  C  942  1  0.70997200  0.06259800  0.39148900  1
  C  943  1  0.72201200  0.05041000  0.37204400  1
  C  944  1  0.74614500  0.05787200  0.36632400  1
  C  945  1  0.75855300  0.07598000  0.38039600  1
  C  961  1  0.22086700  0.45807700  0.12677300  1
  C  962  1  0.22074200  0.45663200  0.10083500  1
  C  963  1  0.23259300  0.43752200  0.08789100  1
  C  964  1  0.24436300  0.41835700  0.10108800  1
  C  965  1  0.24222600  0.41802500  0.12721600  1
  C  966  1  0.23087600  0.43792900  0.13963100  1
  C  968  1  0.25844600  0.40059200  0.08750900  1
  C  969  1  0.28320800  0.40589400  0.08074400  1
  C  970  1  0.29503300  0.39155900  0.06264100  1
  C  971  1  0.28298400  0.37218700  0.05036900  1
  C  972  1  0.25882000  0.36648700  0.05776800  1
  C  973  1  0.24640600  0.38051900  0.07590800  1
  C  989  1  0.78417700  0.54689500  0.12672700  1
  C  990  1  0.78434200  0.54838800  0.10079100  1
  C  991  1  0.77248200  0.56750200  0.08786000  1
  C  992  1  0.76063900  0.58661100  0.10107100  1
  C  993  1  0.76270100  0.58688500  0.12720500  1
  C  994  1  0.77406900  0.56698100  0.13960400  1
  C  996  1  0.74657600  0.60439800  0.08750200  1
  C  997  1  0.72183000  0.59907300  0.08067700  1
  C  998  1  0.70998500  0.61345500  0.06262100  1
  C  999  1  0.72203000  0.63288800  0.05041600  1
  C  1000  1  0.74617200  0.63859300  0.05785900  1
  C  1001  1  0.75858400  0.62452100  0.07596500  1
  C  1017  1  0.22083400  0.54685300  0.87812900  1
  C  1018  1  0.22069100  0.54831300  0.90406700  1
  C  1019  1  0.23254300  0.56742500  0.91700700  1
  C  1020  1  0.24433700  0.58657100  0.90380700  1
  C  1021  1  0.24222400  0.58688700  0.87767600  1
  C  1022  1  0.23087200  0.56698300  0.86526600  1
  C  1024  1  0.25842400  0.60433400  0.91738400  1
  C  1025  1  0.28317500  0.59901800  0.92417300  1
  C  1026  1  0.29499300  0.61335600  0.94227700  1
  C  1027  1  0.28296800  0.63276100  0.95453200  1
  C  1028  1  0.25880900  0.63845000  0.94710400  1
  C  1029  1  0.24639400  0.62442000  0.92896500  1
  C  1045  1  0.78416200  0.45801500  0.87816600  1
  C  1046  1  0.78433100  0.45653300  0.90410200  1
  C  1047  1  0.77247100  0.43742300  0.91704200  1
  C  1048  1  0.76062200  0.41831300  0.90384000  1
  C  1049  1  0.76268100  0.41802900  0.87770600  1
  C  1050  1  0.77404900  0.43792600  0.86529700  1
  C  1052  1  0.74655600  0.40053500  0.91741700  1
  C  1053  1  0.72181200  0.40587400  0.92424400  1
  C  1054  1  0.70996000  0.39150200  0.94230500  1
  C  1055  1  0.72201800  0.37208400  0.95450600  1
  C  1056  1  0.74615000  0.36633900  0.94706700  1
  C  1057  1  0.75856000  0.38040700  0.92895500  1
  C  1073  1  0.45806100  0.87814000  0.78409400  1
  C  1074  1  0.45660000  0.90407800  0.78424500  1
  C  1075  1  0.43749100  0.91702200  0.77239000  1
  C  1076  1  0.41835000  0.90382500  0.76058600  1
  C  1077  1  0.41803400  0.87769500  0.76268800  1
  C  1078  1  0.43793700  0.86528100  0.77404300  1
  C  1080  1  0.40058700  0.91740700  0.74650000  1
  C  1081  1  0.40591200  0.92421100  0.72175200  1
  C  1082  1  0.39157400  0.94231200  0.70992800  1
  C  1083  1  0.37217100  0.95452800  0.72198500  1
  C  1084  1  0.36644500  0.94710900  0.74613200  1
  C  1085  1  0.38048800  0.92897200  0.75853600  1
  C  1101  1  0.54690100  0.87815900  0.22076400  1
  C  1102  1  0.54837900  0.90409600  0.22059900  1
  C  1103  1  0.56748900  0.91703500  0.23245700  1
  C  1104  1  0.58660400  0.90383200  0.24429900  1
  C  1105  1  0.58689000  0.87769700  0.24223500  1
  C  1106  1  0.56699200  0.86529000  0.23086800  1
  C  1108  1  0.60438600  0.91740700  0.25835800  1
  C  1109  1  0.59905800  0.92423000  0.28310500  1
  C  1110  1  0.61343700  0.94229000  0.29494800  1
  C  1111  1  0.63286400  0.95450000  0.28290300  1
  C  1112  1  0.63857100  0.94706200  0.25876200  1
  C  1113  1  0.62450400  0.92895200  0.24635000  1
  C  1129  1  0.54686400  0.12673300  0.78412700  1
  C  1130  1  0.54834100  0.10079600  0.78426700  1
  C  1131  1  0.56745200  0.08786700  0.77240100  1
  C  1132  1  0.58658200  0.10107700  0.76059300  1
  C  1133  1  0.58687900  0.12720800  0.76269900  1
  C  1134  1  0.56697300  0.13960700  0.77406000  1
  C  1136  1  0.60434900  0.08750800  0.74650200  1
  C  1137  1  0.59902500  0.08071100  0.72175200  1
  C  1138  1  0.61336900  0.06261500  0.70992500  1
  C  1139  1  0.63277000  0.05039600  0.72197900  1
  C  1140  1  0.63849400  0.05780800  0.74612600  1
  C  1141  1  0.62444900  0.07594300  0.75853500  1
  C  1157  1  0.45803700  0.12675600  0.22081700  1
  C  1158  1  0.45656700  0.10081900  0.22065000  1
  C  1159  1  0.43745000  0.08787600  0.23249400  1
  C  1160  1  0.41831900  0.10107200  0.24431300  1
  C  1161  1  0.41802000  0.12720600  0.24223700  1
  C  1162  1  0.43792000  0.13961900  0.23088100  1
  C  1164  1  0.40053200  0.08749300  0.25836500  1
  C  1165  1  0.40584200  0.08068300  0.28311800  1
  C  1166  1  0.39146200  0.06262200  0.29495900  1
  C  1167  1  0.37204800  0.05039700  0.28290300  1
  C  1168  1  0.36635500  0.05782600  0.25875400  1
  C  1169  1  0.38042600  0.07593600  0.24634600  1
  C  1185  1  0.87812200  0.22083200  0.54685800  1
  C  1186  1  0.90406000  0.22068700  0.54831900  1
  C  1187  1  0.91700000  0.23254200  0.56743000  1
  C  1188  1  0.90379900  0.24433700  0.58657700  1
  C  1189  1  0.87766900  0.24222400  0.58689200  1
  C  1190  1  0.86525900  0.23087000  0.56698800  1
  C  1192  1  0.91737600  0.25842400  0.60433800  1
  C  1193  1  0.92416400  0.28317500  0.59902000  1
  C  1194  1  0.94226800  0.29499300  0.61336000  1
  C  1195  1  0.95452400  0.28296900  0.63276500  1
  C  1196  1  0.94709600  0.25880900  0.63845400  1
  C  1197  1  0.92895700  0.24639400  0.62442500  1
  C  1213  1  0.87816400  0.78417000  0.45802200  1
  C  1214  1  0.90410000  0.78433600  0.45654000  1
  C  1215  1  0.91704000  0.77247700  0.43743200  1
  C  1216  1  0.90384000  0.76062800  0.41832000  1
  C  1217  1  0.87770400  0.76268600  0.41803800  1
  C  1218  1  0.86529500  0.77405400  0.43793300  1
  C  1220  1  0.91741700  0.74656100  0.40054300  1
  C  1221  1  0.92424300  0.72181800  0.40588300  1
  C  1222  1  0.94230300  0.70996500  0.39151200  1
  C  1223  1  0.95450400  0.72202300  0.37209200  1
  C  1224  1  0.94706500  0.74615600  0.36634600  1
  C  1225  1  0.92895400  0.75856600  0.38041500  1
  C  1241  1  0.12677100  0.22086700  0.45808600  1
  C  1242  1  0.10083200  0.22074200  0.45664100  1
  C  1243  1  0.08788900  0.23259100  0.43752900  1
  C  1244  1  0.10108600  0.24436100  0.41836500  1
  C  1245  1  0.12721400  0.24222600  0.41803400  1
  C  1246  1  0.13962900  0.23087600  0.43793800  1
  C  1248  1  0.08750700  0.25844200  0.40059800  1
  C  1249  1  0.08074100  0.28320600  0.40589900  1
  C  1250  1  0.06263800  0.29502900  0.39156500  1
  C  1251  1  0.05036600  0.28298000  0.37219300  1
  C  1252  1  0.05776600  0.25881700  0.36649500  1
  C  1253  1  0.07590600  0.24640300  0.38052700  1
  C  1269  1  0.12672700  0.78417300  0.54690100  1
  C  1270  1  0.10079100  0.78433800  0.54839400  1
  C  1271  1  0.08786000  0.77247800  0.56750700  1
  C  1272  1  0.10107100  0.76063500  0.58661700  1
  C  1273  1  0.12720500  0.76269900  0.58689000  1
  C  1274  1  0.13960400  0.77406500  0.56698800  1
  C  1276  1  0.08750100  0.74657400  0.60440200  1
  C  1277  1  0.08067700  0.72182900  0.59907700  1
  C  1278  1  0.06262000  0.70998300  0.61346100  1
  C  1279  1  0.05041400  0.72202900  0.63289200  1
  C  1280  1  0.05785700  0.74617000  0.63859900  1
  C  1281  1  0.07596400  0.75858200  0.62452600  1
  C  1297  1  0.54630300  0.79056100  0.11962800  1
  C  1298  1  0.54749300  0.79242500  0.09387700  1
  C  1299  1  0.56462200  0.77852700  0.08029600  1
  C  1300  1  0.58097600  0.76261100  0.09294700  1
  C  1301  1  0.58101100  0.76179800  0.11898300  1
  C  1302  1  0.56354700  0.77585200  0.13207000  1
  C  1304  1  0.59569400  0.74613000  0.07911900  1
  C  1305  1  0.58551100  0.72342500  0.07094200  1
  C  1306  1  0.59821800  0.70949500  0.05325900  1
  C  1307  1  0.62104100  0.71731400  0.04402100  1
  C  1308  1  0.63158500  0.73906200  0.05326100  1
  C  1309  1  0.61913800  0.75376300  0.07047500  1
  C  1325  1  0.45854900  0.21442200  0.11975600  1
  C  1326  1  0.45741900  0.21255100  0.09400000  1
  C  1327  1  0.44029000  0.22642500  0.08039400  1
  C  1328  1  0.42389700  0.24232300  0.09301900  1
  C  1329  1  0.42382800  0.24314700  0.11905500  1
  C  1330  1  0.44126800  0.22909600  0.13217600  1
  C  1332  1  0.40917700  0.25877800  0.07916500  1
  C  1333  1  0.41934200  0.28149800  0.07100200  1
  C  1334  1  0.40662900  0.29542900  0.05332300  1
  C  1335  1  0.38384000  0.28757000  0.04403000  1
  C  1336  1  0.37329300  0.26583200  0.05328700  1
  C  1337  1  0.38575300  0.25112700  0.07048700  1
  C  1353  1  0.45861300  0.79055900  0.88528800  1
  C  1354  1  0.45743100  0.79241700  0.91104000  1
  C  1355  1  0.44029900  0.77852300  0.92462200  1
  C  1356  1  0.42393800  0.76261400  0.91197400  1
  C  1357  1  0.42389700  0.76180700  0.88593700  1
  C  1358  1  0.44136000  0.77585900  0.87284800  1
  C  1360  1  0.40921800  0.74613700  0.92580200  1
  C  1361  1  0.41939400  0.72343000  0.93397800  1
  C  1362  1  0.40668300  0.70951000  0.95166600  1
  C  1363  1  0.38386200  0.71732100  0.96091900  1
  C  1364  1  0.37333200  0.73907300  0.95166400  1
  C  1365  1  0.38577700  0.75377400  0.93444800  1
  C  1381  1  0.54636500  0.21440000  0.88517700  1
  C  1382  1  0.54756500  0.21251500  0.91093400  1
  C  1383  1  0.56469700  0.22639600  0.92452700  1
  C  1384  1  0.58104900  0.24232300  0.91188900  1
  C  1385  1  0.58107500  0.24316300  0.88585400  1
  C  1386  1  0.56362500  0.22910400  0.87275600  1
  C  1388  1  0.59576200  0.25879700  0.92573000  1
  C  1389  1  0.58556800  0.28149800  0.93391200  1
  C  1390  1  0.59827500  0.29544400  0.95158400  1
  C  1391  1  0.62108300  0.28761100  0.96084600  1
  C  1392  1  0.63165900  0.26588900  0.95158200  1
  C  1393  1  0.61920600  0.25117400  0.93438500  1
  C  1409  1  0.11963200  0.54631000  0.79056300  1
  C  1410  1  0.09388000  0.54750200  0.79243200  1
  C  1411  1  0.08029800  0.56463100  0.77853600  1
  C  1412  1  0.09294700  0.58098500  0.76261600  1
  C  1413  1  0.11898300  0.58101800  0.76180000  1
  C  1414  1  0.13207100  0.56355400  0.77585200  1
  C  1416  1  0.07911600  0.59569900  0.74613500  1
  C  1417  1  0.07093800  0.58551400  0.72343200  1
  C  1418  1  0.05325300  0.59822000  0.70950300  1
  C  1419  1  0.04401600  0.62104100  0.71732000  1
  C  1420  1  0.05325700  0.63158900  0.73906500  1
  C  1421  1  0.07047300  0.61914600  0.75376700  1
  C  1437  1  0.11975300  0.45853400  0.21442100  1
  C  1438  1  0.09399700  0.45740200  0.21254600  1
  C  1439  1  0.08039000  0.44027400  0.22642200  1
  C  1440  1  0.09301500  0.42388300  0.24231900  1
  C  1441  1  0.11905100  0.42381500  0.24314500  1
  C  1442  1  0.13217300  0.44125500  0.22909500  1
  C  1444  1  0.07916100  0.40916500  0.25877600  1
  C  1445  1  0.07099800  0.41933100  0.28149600  1
  C  1446  1  0.05331900  0.40662000  0.29542900  1
  C  1447  1  0.04402600  0.38383100  0.28757000  1
  C  1448  1  0.05328300  0.37328100  0.26583400  1
  C  1449  1  0.07048200  0.38573800  0.25112700  1
  C  1465  1  0.88528600  0.45862900  0.79055700  1
  C  1466  1  0.91103800  0.45745000  0.79241200  1
  C  1467  1  0.92461900  0.44031800  0.77851600  1
  C  1468  1  0.91196800  0.42395400  0.76261100  1
  C  1469  1  0.88593100  0.42391200  0.76180500  1
  C  1470  1  0.87284400  0.44137600  0.77585900  1
  C  1472  1  0.92579500  0.40923100  0.74613400  1
  C  1473  1  0.93397100  0.41940300  0.72342500  1
  C  1474  1  0.95165700  0.40668800  0.70950600  1
  C  1475  1  0.96091000  0.38386900  0.71732100  1
  C  1476  1  0.95165500  0.37334100  0.73907500  1
  C  1477  1  0.93444000  0.38579000  0.75377400  1
  C  1493  1  0.88518500  0.54635400  0.21440800  1
  C  1494  1  0.91094100  0.54755400  0.21252700  1
  C  1495  1  0.92453100  0.56468900  0.22640900  1
  C  1496  1  0.91189100  0.58104200  0.24233200  1
  C  1497  1  0.88585800  0.58106600  0.24316900  1
  C  1498  1  0.87276200  0.56361400  0.22910900  1
  C  1500  1  0.92573000  0.59575600  0.25880600  1
  C  1501  1  0.93391000  0.58556600  0.28150900  1
  C  1502  1  0.95158000  0.59827700  0.29545500  1
  C  1503  1  0.96084200  0.62108500  0.28762000  1
  C  1504  1  0.95157800  0.63165700  0.26589600  1
  C  1505  1  0.93438400  0.61920100  0.25118200  1
  C  1521  1  0.79055200  0.11963300  0.54632100  1
  C  1522  1  0.79242100  0.09388200  0.54751500  1
  C  1523  1  0.77852100  0.08030200  0.56464400  1
  C  1524  1  0.76260000  0.09295200  0.58099200  1
  C  1525  1  0.76178300  0.11898800  0.58102400  1
  C  1526  1  0.77583700  0.13207400  0.56355900  1
  C  1528  1  0.74611500  0.07912300  0.59570700  1
  C  1529  1  0.72341400  0.07094300  0.58552000  1
  C  1530  1  0.70948400  0.05325900  0.59822500  1
  C  1531  1  0.71729700  0.04402600  0.62105000  1
  C  1532  1  0.73904200  0.05327000  0.63160200  1
  C  1533  1  0.75374300  0.07048400  0.61915700  1
  C  1549  1  0.21441000  0.11975100  0.45854700  1
  C  1550  1  0.21253700  0.09399500  0.45741700  1
  C  1551  1  0.22640900  0.08038800  0.44028600  1
  C  1552  1  0.24230300  0.09301200  0.42389000  1
  C  1553  1  0.24312600  0.11904800  0.42381800  1
  C  1554  1  0.22908000  0.13217000  0.44126100  1
  C  1556  1  0.25876000  0.07915800  0.40917000  1
  C  1557  1  0.28148000  0.07099900  0.41933300  1
  C  1558  1  0.29541300  0.05332000  0.40662200  1
  C  1559  1  0.28755000  0.04402200  0.38383600  1
  C  1560  1  0.26581000  0.05327400  0.37329000  1
  C  1561  1  0.25110500  0.07047500  0.38574800  1
  C  1577  1  0.79055900  0.88529100  0.45864000  1
  C  1578  1  0.79241000  0.91104500  0.45746100  1
  C  1579  1  0.77851800  0.92462400  0.44032500  1
  C  1580  1  0.76261800  0.91197000  0.42395800  1
  C  1581  1  0.76181600  0.88593300  0.42391600  1
  C  1582  1  0.77586700  0.87284800  0.44138300  1
  C  1584  1  0.74614300  0.92579600  0.40923100  1
  C  1585  1  0.72343000  0.93396700  0.41939700  1
  C  1586  1  0.70951200  0.95165300  0.40668100  1
  C  1587  1  0.71733200  0.96091000  0.38386500  1
  C  1588  1  0.73908900  0.95165700  0.37334300  1
  C  1589  1  0.75378700  0.93444200  0.38579200  1
  C  1605  1  0.21441300  0.88517900  0.54636300  1
  C  1606  1  0.21253100  0.91093500  0.54756500  1
  C  1607  1  0.22641400  0.92452700  0.56469900  1
  C  1608  1  0.24234100  0.91188600  0.58104700  1
  C  1609  1  0.24318100  0.88585300  0.58107100  1
  C  1610  1  0.22912000  0.87275600  0.56362000  1
  C  1612  1  0.25881700  0.92572700  0.59576000  1
  C  1613  1  0.28151800  0.93391000  0.58556800  1
  C  1614  1  0.29546400  0.95157800  0.59827700  1
  C  1615  1  0.28763300  0.96083700  0.62108700  1
  C  1616  1  0.26591200  0.95157100  0.63166200  1
  C  1617  1  0.25119600  0.93437800  0.61920600  1
  C  1633  1  0.79051300  0.54631000  0.88525600  1
  C  1634  1  0.79238800  0.54748200  0.91100900  1
  C  1635  1  0.77849900  0.56460900  0.92460400  1
  C  1636  1  0.76258300  0.58097600  0.91196800  1
  C  1637  1  0.76176100  0.58102500  0.88593300  1
  C  1638  1  0.77580600  0.56356300  0.87283100  1
  C  1640  1  0.74611500  0.59569200  0.92581100  1
  C  1641  1  0.72340600  0.58552000  0.93398900  1
  C  1642  1  0.70948800  0.59822900  0.95167900  1
  C  1643  1  0.71731800  0.62104600  0.96091700  1
  C  1644  1  0.73906900  0.63158400  0.95167700  1
  C  1645  1  0.75376100  0.61913300  0.93445700  1
  C  1661  1  0.21443200  0.45856200  0.88515400  1
  C  1662  1  0.21255300  0.45738400  0.91091000  1
  C  1663  1  0.22643100  0.44025500  0.92451400  1
  C  1664  1  0.24234700  0.42388600  0.91188600  1
  C  1665  1  0.24318300  0.42384000  0.88585300  1
  C  1666  1  0.22912800  0.44128600  0.87274300  1
  C  1668  1  0.25881500  0.40917600  0.92573400  1
  C  1669  1  0.28152400  0.41935900  0.93390700  1
  C  1670  1  0.29546600  0.40665100  0.95158000  1
  C  1671  1  0.28762700  0.38384900  0.96086200  1
  C  1672  1  0.26589800  0.37328600  0.95159800  1
  C  1673  1  0.25118500  0.38574000  0.93440200  1
  C  1689  1  0.79055900  0.45858500  0.11966100  1
  C  1690  1  0.79244900  0.45739500  0.09391100  1
  C  1691  1  0.77854700  0.44026800  0.08032900  1
  C  1692  1  0.76261300  0.42392800  0.09297500  1
  C  1693  1  0.76177600  0.42390500  0.11901100  1
  C  1694  1  0.77583000  0.44136500  0.13210400  1
  C  1696  1  0.74613500  0.40921200  0.07914000  1
  C  1697  1  0.72343900  0.41939900  0.07094300  1
  C  1698  1  0.70952300  0.40668800  0.05325500  1
  C  1699  1  0.71732500  0.38385800  0.04401500  1
  C  1700  1  0.73906700  0.37332100  0.05328800  1
  C  1701  1  0.75376300  0.38576200  0.07051000  1
  C  1717  1  0.21441100  0.54636500  0.11976400  1
  C  1718  1  0.21254000  0.54750800  0.09400500  1
  C  1719  1  0.22641100  0.56463600  0.08039600  1
  C  1720  1  0.24231200  0.58102700  0.09301800  1
  C  1721  1  0.24313700  0.58109500  0.11905300  1
  C  1722  1  0.22908500  0.56365500  0.13217300  1
  C  1724  1  0.25877500  0.59574000  0.07916300  1
  C  1725  1  0.28148900  0.58556200  0.07100200  1
  C  1726  1  0.29542900  0.59827000  0.05332600  1
  C  1727  1  0.28758500  0.62106500  0.04403400  1
  C  1728  1  0.26584800  0.63162000  0.05328700  1
  C  1729  1  0.25113400  0.61916800  0.07048300  1
  C  1745  1  0.54631500  0.11965600  0.21437100  1
  C  1746  1  0.54748000  0.09390300  0.21250200  1
  C  1747  1  0.56460700  0.08030600  0.22638900  1
  C  1748  1  0.58097800  0.09294000  0.24229900  1
  C  1749  1  0.58103600  0.11897600  0.24311400  1
  C  1750  1  0.56358000  0.13208000  0.22906900  1
  C  1752  1  0.59568500  0.07909800  0.25877800  1
  C  1753  1  0.58550000  0.07093200  0.28148500  1
  C  1754  1  0.59820300  0.05324700  0.29541800  1
  C  1755  1  0.62102600  0.04399900  0.28761600  1
  C  1756  1  0.63156700  0.05323100  0.26585900  1
  C  1757  1  0.61912600  0.07044300  0.25114900  1
  C  1773  1  0.45854700  0.11971900  0.79053700  1
  C  1774  1  0.45736000  0.09396700  0.79242800  1
  C  1775  1  0.44022600  0.08038300  0.77853800  1
  C  1776  1  0.42387900  0.09302900  0.76260900  1
  C  1777  1  0.42386200  0.11906400  0.76176500  1
  C  1778  1  0.44131200  0.13216200  0.77582800  1
  C  1780  1  0.40915700  0.07919000  0.74614300  1
  C  1781  1  0.41934000  0.07099500  0.72344300  1
  C  1782  1  0.40662600  0.05331800  0.70951200  1
  C  1783  1  0.38382000  0.04405200  0.71735600  1
  C  1784  1  0.37325700  0.05334000  0.73907300  1
  C  1785  1  0.38571500  0.07054400  0.75377400  1
  C  1801  1  0.45860700  0.88522000  0.21442100  1
  C  1802  1  0.45741500  0.91097200  0.21253100  1
  C  1803  1  0.44029600  0.92457600  0.22642000  1
  C  1804  1  0.42394300  0.91195000  0.24235400  1
  C  1805  1  0.42390100  0.88591500  0.24319400  1
  C  1806  1  0.44135800  0.87281100  0.22915000  1
  C  1808  1  0.40923600  0.92579800  0.25882800  1
  C  1809  1  0.41942900  0.93398900  0.28152400  1
  C  1810  1  0.40672100  0.95167700  0.29544900  1
  C  1811  1  0.38389100  0.96089900  0.28764000  1
  C  1812  1  0.37333900  0.95164800  0.26590100  1
  C  1813  1  0.38578400  0.93443100  0.25120200  1
  C  1829  1  0.54635900  0.88515700  0.79048700  1
  C  1830  1  0.54750600  0.91091500  0.79236200  1
  C  1831  1  0.56463300  0.92452500  0.77849000  1
  C  1832  1  0.58102000  0.91190200  0.76258500  1
  C  1833  1  0.58108400  0.88586700  0.76175600  1
  C  1834  1  0.56364200  0.87274700  0.77580400  1
  C  1836  1  0.59573800  0.92575800  0.74613000  1
  C  1837  1  0.58557100  0.93392300  0.72341200  1
  C  1838  1  0.59828200  0.95159800  0.70947700  1
  C  1839  1  0.62107400  0.96088100  0.71733800  1
  C  1840  1  0.63162800  0.95163300  0.73907600  1
  C  1841  1  0.61916600  0.93443500  0.75378100  1
  C  1857  1  0.11966200  0.79056100  0.45859100  1
  C  1858  1  0.09391200  0.79245000  0.45740200  1
  C  1859  1  0.08033000  0.77854900  0.44027400  1
  C  1860  1  0.09297500  0.76261400  0.42393200  1
  C  1861  1  0.11901200  0.76178000  0.42391000  1
  C  1862  1  0.13210500  0.77583200  0.44137100  1
  C  1864  1  0.07914000  0.74613900  0.40921800  1
  C  1865  1  0.07094300  0.72344300  0.41940300  1
  C  1866  1  0.05325400  0.70952700  0.40669200  1
  C  1867  1  0.04401400  0.71733100  0.38386400  1
  C  1868  1  0.05328700  0.73907100  0.37332500  1
  C  1869  1  0.07051000  0.75376700  0.38576800  1
  C  1885  1  0.11976000  0.21441700  0.54637400  1
  C  1886  1  0.09400200  0.21254400  0.54751700  1
  C  1887  1  0.08039100  0.22641400  0.56464500  1
  C  1888  1  0.09301300  0.24231600  0.58103500  1
  C  1889  1  0.11904800  0.24314300  0.58110400  1
  C  1890  1  0.13216800  0.22909100  0.56366400  1
  C  1892  1  0.07915700  0.25878000  0.59574500  1
  C  1893  1  0.07099600  0.28149400  0.58556900  1
  C  1894  1  0.05331800  0.29543300  0.59827500  1
  C  1895  1  0.04402600  0.28758900  0.62107000  1
  C  1896  1  0.05327900  0.26585400  0.63162600  1
  C  1897  1  0.07047700  0.25113900  0.61917300  1
  C  1913  1  0.88525500  0.79051700  0.54631700  1
  C  1914  1  0.91100700  0.79239000  0.54748900  1
  C  1915  1  0.92460200  0.77849900  0.56461400  1
  C  1916  1  0.91196600  0.76258500  0.58098000  1
  C  1917  1  0.88593100  0.76176100  0.58103100  1
  C  1918  1  0.87283000  0.77580800  0.56357000  1
  C  1920  1  0.92580900  0.74611500  0.59569800  1
  C  1921  1  0.93398700  0.72340600  0.58552200  1
  C  1922  1  0.95167700  0.70948600  0.59823100  1
  C  1923  1  0.96091700  0.71731600  0.62104800  1
  C  1924  1  0.95167500  0.73906700  0.63158700  1
  C  1925  1  0.93445700  0.75375900  0.61913800  1
  C  1941  1  0.88514800  0.21442600  0.45856900  1
  C  1942  1  0.91090400  0.21254600  0.45739100  1
  C  1943  1  0.92450900  0.22642400  0.44026300  1
  C  1944  1  0.91188200  0.24233900  0.42389400  1
  C  1945  1  0.88584900  0.24317600  0.42384600  1
  C  1946  1  0.87273800  0.22912000  0.44129200  1
  C  1948  1  0.92573200  0.25880800  0.40918300  1
  C  1949  1  0.93390300  0.28151600  0.41936400  1
  C  1950  1  0.95157600  0.29545800  0.40665700  1
  C  1951  1  0.96085900  0.28762000  0.38385600  1
  C  1952  1  0.95159600  0.26589000  0.37329300  1
  C  1953  1  0.93439800  0.25117600  0.38574600  1
  N  8  1  0.26756300  0.39689900  0.00675900  1
  N  15  1  0.39685900  0.26749900  0.99812400  1
  N  17  1  0.33461500  0.36019900  0.96266900  1
  N  18  1  0.36025600  0.33456600  0.04221400  1
  N  34  1  0.73743800  0.60810400  0.00683200  1
  N  41  1  0.60807500  0.73741800  0.99810600  1
  N  43  1  0.67033700  0.64466900  0.96273500  1
  N  44  1  0.64468900  0.67032900  0.04220600  1
  N  60  1  0.73746200  0.39681100  0.99811000  1
  N  67  1  0.60804400  0.26753200  0.00674700  1
  N  69  1  0.67036200  0.36023600  0.04220700  1
  N  70  1  0.64474600  0.33457900  0.96264900  1
  N  86  1  0.26753600  0.60802500  0.99812400  1
  N  93  1  0.39679100  0.73746000  0.00682800  1
  N  95  1  0.33457300  0.64472200  0.04225000  1
  N  96  1  0.36026500  0.67034000  0.96273400  1
  N  112  1  0.00675700  0.26755600  0.39690700  1
  N  119  1  0.99812100  0.39685000  0.26750100  1
  N  121  1  0.96266600  0.33460800  0.36020400  1
  N  122  1  0.04221000  0.36025000  0.33456900  1
  N  138  1  0.00683100  0.73743600  0.60810600  1
  N  145  1  0.99810000  0.60807700  0.73742300  1
  N  147  1  0.96273400  0.67033700  0.64467300  1
  N  148  1  0.04220100  0.64468500  0.67033500  1
  N  164  1  0.99811000  0.73746800  0.39681500  1
  N  171  1  0.00674200  0.60804200  0.26754300  1
  N  173  1  0.04220500  0.67036600  0.36024100  1
  N  174  1  0.96264500  0.64475000  0.33458600  1
  N  190  1  0.99811700  0.26753600  0.60803100  1
  N  197  1  0.00681900  0.39679700  0.73746000  1
  N  199  1  0.04224000  0.33457700  0.64472600  1
  N  200  1  0.96272300  0.36026700  0.67034000  1
  N  216  1  0.39683900  0.00681000  0.26751400  1
  N  223  1  0.26749700  0.99811000  0.39686100  1
  N  225  1  0.36023200  0.96270800  0.33461900  1
  N  226  1  0.33453600  0.04222900  0.36023400  1
  N  242  1  0.60805600  0.00678600  0.73741400  1
  N  249  1  0.73741400  0.99811500  0.60808900  1
  N  251  1  0.64469100  0.96270400  0.67035000  1
  N  252  1  0.67030400  0.04219200  0.64468200  1
  N  268  1  0.39684400  0.99815500  0.73744900  1
  N  275  1  0.26754300  0.00673400  0.60804700  1
  N  277  1  0.36021400  0.04223500  0.67037500  1
  N  278  1  0.33460600  0.96265800  0.64473900  1
  N  294  1  0.60807500  0.99808200  0.26750100  1
  N  301  1  0.73745700  0.00682200  0.39680000  1
  N  303  1  0.64469300  0.04220400  0.33459000  1
  N  304  1  0.67036200  0.96270400  0.36024500  1
  N  320  1  0.76036000  0.88606500  0.50079300  1
  N  327  1  0.88600500  0.76032700  0.50414600  1
  N  329  1  0.83788100  0.86308300  0.46300100  1
  N  330  1  0.86310700  0.83783900  0.54195300  1
  N  346  1  0.24464700  0.11898200  0.50067600  1
  N  353  1  0.11898200  0.24465100  0.50424500  1
  N  355  1  0.16707100  0.14187100  0.46298600  1
  N  356  1  0.14188400  0.16706400  0.54193500  1
  N  372  1  0.24461600  0.88596800  0.50421800  1
  N  379  1  0.11885900  0.76037300  0.50075100  1
  N  381  1  0.16707400  0.86307400  0.54196400  1
  N  382  1  0.14187200  0.83787400  0.46295900  1
  N  398  1  0.76035100  0.11884400  0.50415900  1
  N  405  1  0.88589100  0.24464400  0.50069900  1
  N  407  1  0.83786600  0.14186000  0.54195100  1
  N  408  1  0.86307000  0.16707300  0.46298100  1
  N  424  1  0.50076200  0.76035600  0.88607600  1
  N  431  1  0.50420500  0.88591100  0.76027400  1
  N  433  1  0.46297700  0.83787200  0.86305700  1
  N  434  1  0.54194600  0.86308100  0.83783700  1
  N  450  1  0.50068500  0.24465100  0.11899800  1
  N  457  1  0.50418500  0.11888800  0.24459800  1
  N  459  1  0.46297900  0.16707700  0.14186300  1
  N  460  1  0.54191300  0.14185800  0.16705100  1
  N  476  1  0.50422300  0.24460700  0.88597400  1
  N  483  1  0.50069800  0.11891200  0.76033600  1
  N  485  1  0.54196200  0.16706800  0.86305600  1
  N  486  1  0.46294800  0.14188000  0.83787000  1
  N  502  1  0.50413900  0.76036000  0.11885800  1
  N  509  1  0.50076500  0.88598300  0.24460300  1
  N  511  1  0.54193500  0.83788500  0.14183500  1
  N  512  1  0.46297500  0.86309000  0.16708700  1
  N  528  1  0.88606000  0.50078400  0.76035800  1
  N  535  1  0.76032300  0.50414100  0.88600900  1
  N  537  1  0.86307600  0.46298800  0.83787900  1
  N  538  1  0.83783500  0.54194400  0.86310700  1
  N  554  1  0.11898200  0.50066600  0.24465500  1
  N  561  1  0.24464700  0.50423800  0.11898500  1
  N  563  1  0.14187100  0.46297300  0.16708000  1
  N  564  1  0.16705900  0.54192200  0.14188900  1
  N  580  1  0.88597400  0.50420900  0.24461100  1
  N  587  1  0.76037300  0.50074500  0.11885900  1
  N  589  1  0.86307800  0.54195300  0.16706900  1
  N  590  1  0.83787400  0.46295000  0.14186900  1
  N  606  1  0.11884500  0.50415000  0.76036000  1
  N  613  1  0.24464900  0.50069600  0.88589700  1
  N  615  1  0.14186000  0.54194000  0.83787700  1
  N  616  1  0.16707900  0.46297300  0.86307800  1
  N  641  1  0.37601800  0.22132600  0.92368300  1
  N  642  1  0.42622300  0.29704300  0.91577700  1
  N  643  1  0.43766700  0.23324800  0.94308400  1
  N  644  1  0.39851200  0.25029000  0.86260200  1
  N  669  1  0.62894600  0.78362500  0.92370500  1
  N  670  1  0.57869400  0.70794700  0.91587700  1
  N  671  1  0.56731500  0.77176900  0.94311000  1
  N  672  1  0.60640200  0.75458500  0.86262600  1
  N  697  1  0.62884800  0.22134200  0.08121900  1
  N  698  1  0.57865900  0.29706400  0.08913000  1
  N  699  1  0.56718100  0.23326100  0.06186000  1
  N  700  1  0.60639600  0.25032700  0.14230700  1
  N  725  1  0.37593300  0.78361700  0.08129600  1
  N  726  1  0.42625600  0.70797700  0.08898900  1
  N  727  1  0.43755900  0.77184000  0.06183000  1
  N  728  1  0.39855200  0.75451900  0.14232500  1
  N  753  1  0.92367900  0.37600700  0.22132900  1
  N  754  1  0.91577300  0.42621800  0.29704300  1
  N  755  1  0.94308300  0.43765400  0.23324800  1
  N  756  1  0.86259900  0.39850600  0.25029200  1
  N  781  1  0.92369800  0.62895800  0.78362800  1
  N  782  1  0.91587000  0.57869800  0.70795800  1
  N  783  1  0.94309900  0.56732400  0.77178100  1
  N  784  1  0.86261700  0.60641300  0.75458900  1
  N  809  1  0.08121000  0.62883700  0.22134800  1
  N  810  1  0.08912300  0.57865900  0.29707600  1
  N  811  1  0.06185000  0.56717200  0.23327700  1
  N  812  1  0.14229900  0.60638900  0.25033200  1
  N  837  1  0.08128600  0.37593900  0.78361900  1
  N  838  1  0.08898000  0.42625500  0.70797500  1
  N  839  1  0.06182100  0.43756400  0.77183600  1
  N  840  1  0.14231500  0.39855400  0.75451900  1
  N  865  1  0.22134000  0.92366700  0.37601400  1
  N  866  1  0.29704900  0.91577300  0.42623400  1
  N  867  1  0.23325000  0.94307500  0.43766300  1
  N  868  1  0.25030500  0.86259100  0.39851900  1
  N  893  1  0.78363200  0.92371400  0.62896600  1
  N  894  1  0.70795800  0.91587900  0.57871200  1
  N  895  1  0.77177800  0.94311000  0.56733100  1
  N  896  1  0.75459600  0.86263000  0.60642700  1
  N  921  1  0.22133700  0.08120200  0.62884500  1
  N  922  1  0.29706900  0.08912400  0.57867400  1
  N  923  1  0.23327200  0.06184700  0.56717900  1
  N  924  1  0.25031900  0.14229400  0.60640400  1
  N  949  1  0.78360600  0.08129100  0.37594600  1
  N  950  1  0.70796600  0.08897600  0.42626700  1
  N  951  1  0.77182900  0.06182100  0.43757100  1
  N  952  1  0.75450400  0.14231600  0.39856700  1
  N  977  1  0.22134000  0.37608000  0.08117300  1
  N  978  1  0.29709300  0.42621100  0.08919000  1
  N  979  1  0.23332500  0.43774400  0.06184900  1
  N  980  1  0.25027500  0.39848600  0.14230000  1
  N  1005  1  0.78364300  0.62896000  0.08125700  1
  N  1006  1  0.70797700  0.57868800  0.08901400  1
  N  1007  1  0.77181400  0.56733700  0.06181600  1
  N  1008  1  0.75457400  0.60637400  0.14231300  1
  N  1033  1  0.22133300  0.62887400  0.92368300  1
  N  1034  1  0.29705300  0.57868500  0.91575100  1
  N  1035  1  0.23325700  0.56721700  0.94305000  1
  N  1036  1  0.25030100  0.60641100  0.86258600  1
  N  1061  1  0.78361600  0.37595900  0.92365600  1
  N  1062  1  0.70796600  0.42626200  0.91590100  1
  N  1063  1  0.77180900  0.43759700  0.94308600  1
  N  1064  1  0.75454500  0.39853800  0.86260600  1
  N  1089  1  0.37603400  0.92367200  0.78359000  1
  N  1090  1  0.42625300  0.91580000  0.70787900  1
  N  1091  1  0.43769600  0.94306400  0.77169000  1
  N  1092  1  0.39851700  0.86260400  0.75459600  1
  N  1117  1  0.62894400  0.92366100  0.22129100  1
  N  1118  1  0.57867700  0.91588500  0.29695900  1
  N  1119  1  0.56731300  0.94307900  0.23312500  1
  N  1120  1  0.60638700  0.86259900  0.25036200  1
  N  1145  1  0.62890500  0.08123800  0.78359200  1
  N  1146  1  0.57868100  0.08911700  0.70788300  1
  N  1147  1  0.56726000  0.06182400  0.77169000  1
  N  1148  1  0.60638900  0.14231000  0.75460900  1
  N  1173  1  0.37600500  0.08121400  0.22128200  1
  N  1174  1  0.42620700  0.08904300  0.29698700  1
  N  1175  1  0.43763800  0.06183100  0.23316700  1
  N  1176  1  0.39850800  0.14229800  0.25033800  1
  N  1201  1  0.92367600  0.22133500  0.62888000  1
  N  1202  1  0.91574300  0.29705300  0.57868700  1
  N  1203  1  0.94304200  0.23325500  0.56722300  1
  N  1204  1  0.86257900  0.25030100  0.60641500  1
  N  1229  1  0.92365600  0.78362100  0.37596600  1
  N  1230  1  0.91589900  0.70797100  0.42626900  1
  N  1231  1  0.94308400  0.77181600  0.43760600  1
  N  1232  1  0.86260400  0.75455000  0.39854700  1
  N  1257  1  0.08117200  0.22133700  0.37608900  1
  N  1258  1  0.08918700  0.29709100  0.42621600  1
  N  1259  1  0.06184700  0.23332500  0.43775100  1
  N  1260  1  0.14229800  0.25027400  0.39849400  1
  N  1285  1  0.08125600  0.78364100  0.62896600  1
  N  1286  1  0.08901400  0.70797500  0.57869200  1
  N  1287  1  0.06181600  0.77181300  0.56734200  1
  N  1288  1  0.14231200  0.75457200  0.60638000  1
  N  1313  1  0.63106800  0.77596800  0.07678900  1
  N  1314  1  0.56269200  0.71343800  0.07837500  1
  N  1315  1  0.56470000  0.77938900  0.05426100  1
  N  1316  1  0.59769300  0.74619800  0.13141500  1
  N  1341  1  0.37383100  0.22891800  0.07680300  1
  N  1342  1  0.44215200  0.29150000  0.07844500  1
  N  1343  1  0.44024200  0.22554900  0.05435900  1
  N  1344  1  0.40711900  0.25874300  0.13145800  1
  N  1369  1  0.37385100  0.77598000  0.92813700  1
  N  1370  1  0.44220900  0.71343400  0.92654300  1
  N  1371  1  0.44022800  0.77938200  0.95065700  1
  N  1372  1  0.40720900  0.74621100  0.87350700  1
  N  1397  1  0.63115400  0.22898800  0.92804700  1
  N  1398  1  0.56273400  0.29146500  0.92650100  1
  N  1399  1  0.56478300  0.22549900  0.95056000  1
  N  1400  1  0.59775000  0.25878200  0.87343500  1
  N  1425  1  0.07678900  0.63107700  0.77596800  1
  N  1426  1  0.07837000  0.56269400  0.71344700  1
  N  1427  1  0.05426300  0.56471000  0.77940000  1
  N  1428  1  0.13141300  0.59769900  0.74619800  1
  N  1453  1  0.07679800  0.37381600  0.22892000  1
  N  1454  1  0.07844100  0.44214300  0.29149400  1
  N  1455  1  0.05435500  0.44022800  0.22554300  1
  N  1456  1  0.13145300  0.40710600  0.25874300  1
  N  1481  1  0.92813000  0.37386800  0.77598400  1
  N  1482  1  0.92653400  0.44221600  0.71342900  1
  N  1483  1  0.95065400  0.44024400  0.77937200  1
  N  1484  1  0.87349900  0.40722400  0.74621200  1
  N  1509  1  0.92804500  0.63114500  0.22899400  1
  N  1510  1  0.92649900  0.56273200  0.29147800  1
  N  1511  1  0.95056500  0.56477600  0.22551500  1
  N  1512  1  0.87343300  0.59774100  0.25878600  1
  N  1537  1  0.77594400  0.07680200  0.63109000  1
  N  1538  1  0.71343400  0.07837100  0.56269700  1
  N  1539  1  0.77938500  0.05426600  0.56472600  1
  N  1540  1  0.74617800  0.13142000  0.59770100  1
  N  1565  1  0.22889500  0.07678700  0.37382900  1
  N  1566  1  0.29148500  0.07844600  0.44214100  1
  N  1567  1  0.22553400  0.05435200  0.44024200  1
  N  1568  1  0.25871900  0.13145000  0.40710600  1
  N  1593  1  0.77599900  0.92813500  0.37387500  1
  N  1594  1  0.71342900  0.92652800  0.44220700  1
  N  1595  1  0.77936900  0.95065900  0.44025300  1
  N  1596  1  0.74622900  0.87349900  0.40722400  1
  N  1621  1  0.22901000  0.92803600  0.63115400  1
  N  1622  1  0.29148300  0.92650100  0.56273200  1
  N  1623  1  0.22551900  0.95056000  0.56478700  1
  N  1624  1  0.25880000  0.87343000  0.59774100  1
  N  1649  1  0.77596900  0.63105300  0.92814300  1
  N  1650  1  0.71340800  0.56270600  0.92655200  1
  N  1651  1  0.77936900  0.56467100  0.95063900  1
  N  1652  1  0.74616300  0.59771900  0.87351600  1
  N  1677  1  0.22899000  0.37380000  0.92807500  1
  N  1678  1  0.29150200  0.44218300  0.92648100  1
  N  1679  1  0.22553900  0.44018900  0.95054900  1
  N  1680  1  0.25879300  0.40715200  0.87344100  1
  N  1705  1  0.77595500  0.37382400  0.07684500  1
  N  1706  1  0.71345800  0.44222700  0.07835700  1
  N  1707  1  0.77942600  0.44018000  0.05429500  1
  N  1708  1  0.74615600  0.40723700  0.13143700  1
  N  1733  1  0.22893100  0.63109700  0.07679600  1
  N  1734  1  0.29147900  0.56274900  0.07844600  1
  N  1735  1  0.22552800  0.56468600  0.05436100  1
  N  1736  1  0.25873600  0.59780200  0.13145500  1
  N  1761  1  0.63105700  0.07674300  0.22894200  1
  N  1762  1  0.56268400  0.07837700  0.29147200  1
  N  1763  1  0.56466200  0.05427100  0.22552300  1
  N  1764  1  0.59773400  0.13139100  0.25871200  1
  N  1789  1  0.37377200  0.07689700  0.77595800  1
  N  1790  1  0.44217400  0.07839900  0.71346500  1
  N  1791  1  0.44013200  0.05434900  0.77943100  1
  N  1792  1  0.40719600  0.13148800  0.74614100  1
  N  1817  1  0.37384900  0.92810200  0.22900700  1
  N  1818  1  0.44225500  0.92656900  0.29150300  1
  N  1819  1  0.44022400  0.95060900  0.22552700  1
  N  1820  1  0.40722200  0.87350300  0.25881500  1
  N  1845  1  0.63108800  0.92811500  0.77598600  1
  N  1846  1  0.56275800  0.92648400  0.71341600  1
  N  1847  1  0.56468200  0.95056000  0.77937400  1
  N  1848  1  0.59779100  0.87346400  0.74615600  1
  N  1873  1  0.07684500  0.77596000  0.37382900  1
  N  1874  1  0.07835700  0.71346000  0.44223100  1
  N  1875  1  0.05429500  0.77942900  0.44018600  1
  N  1876  1  0.13143700  0.74615900  0.40724000  1
  N  1901  1  0.07679100  0.22893700  0.63110500  1
  N  1902  1  0.07844000  0.29148300  0.56275400  1
  N  1903  1  0.05435600  0.22553200  0.56469100  1
  N  1904  1  0.13145000  0.25874100  0.59781100  1
  N  1929  1  0.92814100  0.77596800  0.63105900  1
  N  1930  1  0.92655000  0.71341000  0.56270800  1
  N  1931  1  0.95063700  0.77937100  0.56467700  1
  N  1932  1  0.87351400  0.74616100  0.59772500  1
  N  1957  1  0.92807300  0.22898300  0.37380700  1
  N  1958  1  0.92647700  0.29149400  0.44219100  1
  N  1959  1  0.95054300  0.22553000  0.44019700  1
  N  1960  1  0.87343700  0.25878600  0.40715800  1
  O  645  1  0.35462900  0.21810600  0.91573800  1
  O  646  1  0.37897300  0.23914200  0.86753500  1
  O  647  1  0.43644100  0.21207400  0.95210100  1
  O  648  1  0.42606900  0.30036800  0.89303600  1
  O  649  1  0.37903900  0.20805300  0.94229700  1
  O  650  1  0.39461900  0.27290500  0.86400000  1
  O  651  1  0.45655300  0.24359800  0.95133200  1
  O  652  1  0.44653700  0.28818300  0.92196800  1
  O  673  1  0.65032300  0.78685500  0.91573100  1
  O  674  1  0.62595400  0.76572400  0.86753500  1
  O  675  1  0.56856600  0.79295100  0.95209700  1
  O  676  1  0.57877800  0.70461900  0.89313900  1
  O  677  1  0.62594800  0.79688800  0.94233100  1
  O  678  1  0.61028000  0.73196800  0.86404800  1
  O  679  1  0.54842300  0.76145100  0.95138500  1
  O  680  1  0.55840600  0.71682100  0.92213300  1
  O  701  1  0.65023800  0.21812100  0.08915600  1
  O  702  1  0.62593300  0.23917700  0.13736200  1
  O  703  1  0.56839700  0.21208500  0.05285100  1
  O  704  1  0.57882000  0.30039300  0.11186900  1
  O  705  1  0.62581800  0.20807100  0.06260500  1
  O  706  1  0.61028900  0.27294000  0.14089900  1
  O  707  1  0.54829100  0.24360900  0.05362100  1
  O  708  1  0.55834200  0.28820700  0.08294400  1
  O  729  1  0.35456200  0.78682200  0.08929400  1
  O  730  1  0.37898600  0.76564900  0.13744600  1
  O  731  1  0.43628200  0.79303400  0.05287100  1
  O  732  1  0.42619800  0.70461900  0.11172400  1
  O  733  1  0.37890100  0.79690100  0.06268100  1
  O  734  1  0.39469400  0.73190200  0.14087700  1
  O  735  1  0.45645200  0.76154900  0.05352700  1
  O  736  1  0.44653100  0.71687600  0.08272500  1
  O  757  1  0.91573200  0.35461800  0.21811200  1
  O  758  1  0.86753200  0.37896400  0.23914600  1
  O  759  1  0.95210100  0.43642700  0.21207600  1
  O  760  1  0.89303500  0.42606400  0.30036900  1
  O  761  1  0.94229400  0.37902600  0.20805700  1
  O  762  1  0.86399700  0.39461400  0.27290700  1
  O  763  1  0.95133000  0.45654000  0.24359600  1
  O  764  1  0.92196600  0.44652900  0.28818100  1
  O  785  1  0.91572300  0.65033600  0.78685500  1
  O  786  1  0.86752800  0.62596500  0.76572600  1
  O  787  1  0.95208600  0.56857900  0.79296400  1
  O  788  1  0.89313200  0.57878000  0.70462900  1
  O  789  1  0.94232100  0.62596100  0.79689300  1
  O  790  1  0.86404100  0.61028500  0.73197100  1
  O  791  1  0.95137400  0.54843100  0.76146600  1
  O  792  1  0.92212400  0.55841000  0.71683300  1
  O  813  1  0.08914900  0.65022700  0.21812300  1
  O  814  1  0.13735400  0.62592400  0.23917900  1
  O  815  1  0.05284000  0.56838800  0.21210000  1
  O  816  1  0.11186300  0.57881900  0.30040400  1
  O  817  1  0.06259500  0.62580700  0.20807900  1
  O  818  1  0.14089200  0.61028500  0.27294600  1
  O  819  1  0.05361100  0.54828400  0.24362700  1
  O  820  1  0.08293600  0.55834200  0.28822300  1
  O  841  1  0.08928300  0.35456700  0.78682400  1
  O  842  1  0.13743600  0.37898900  0.76565100  1
  O  843  1  0.05286300  0.43628900  0.79303000  1
  O  844  1  0.11171600  0.42619800  0.70461800  1
  O  845  1  0.06267100  0.37890900  0.79690300  1
  O  846  1  0.14086600  0.39469400  0.73190200  1
  O  847  1  0.05351800  0.45645700  0.76154500  1
  O  848  1  0.08271700  0.44653100  0.71687000  1
  O  869  1  0.21812300  0.91572000  0.35462600  1
  O  870  1  0.23916000  0.86752300  0.37897700  1
  O  871  1  0.21207800  0.95209200  0.43643200  1
  O  872  1  0.30037700  0.89303300  0.42608200  1
  O  873  1  0.20806600  0.94228100  0.37903200  1
  O  874  1  0.27292000  0.86398900  0.39463000  1
  O  875  1  0.24359600  0.95132500  0.45654900  1
  O  876  1  0.28818500  0.92196400  0.44654600  1
  O  897  1  0.78686300  0.91574200  0.65034300  1
  O  898  1  0.76573300  0.86754300  0.62597900  1
  O  899  1  0.79296200  0.95209900  0.56858400  1
  O  900  1  0.70463000  0.89313900  0.57879800  1
  O  901  1  0.79689500  0.94234200  0.62596800  1
  O  902  1  0.73197900  0.86405200  0.61030200  1
  O  903  1  0.76146200  0.95138400  0.54844000  1
  O  904  1  0.71683200  0.92213100  0.55842500  1
  O  925  1  0.21811000  0.08913800  0.65023500  1
  O  926  1  0.23916400  0.13734700  0.62593700  1
  O  927  1  0.21209600  0.05283600  0.56839100  1
  O  928  1  0.30039700  0.11186400  0.57883700  1
  O  929  1  0.20807000  0.06258600  0.62581000  1
  O  930  1  0.27293300  0.14088900  0.61030200  1
  O  931  1  0.24362500  0.05361000  0.54829100  1
  O  932  1  0.28821800  0.08293900  0.55835500  1
  O  953  1  0.78680900  0.08929000  0.35457400  1
  O  954  1  0.76563400  0.13743800  0.37900000  1
  O  955  1  0.79302300  0.05286400  0.43629300  1
  O  956  1  0.70460700  0.11171200  0.42621200  1
  O  957  1  0.79689000  0.06267600  0.37891400  1
  O  958  1  0.73188700  0.14086600  0.39470700  1
  O  959  1  0.76153900  0.05351600  0.45646300  1
  O  960  1  0.71686300  0.08271200  0.44654200  1
  O  981  1  0.21809900  0.35468600  0.08909300  1
  O  982  1  0.23911300  0.37896200  0.13733500  1
  O  983  1  0.21215900  0.43654600  0.05281700  1
  O  984  1  0.30039900  0.42603300  0.11193300  1
  O  985  1  0.20808600  0.37913200  0.06255100  1
  O  986  1  0.27288700  0.39457300  0.14091400  1
  O  987  1  0.24369700  0.45662800  0.05362800  1
  O  988  1  0.28825600  0.44653800  0.08301000  1
  O  1009  1  0.78686400  0.65033200  0.08924500  1
  O  1010  1  0.76570900  0.62593200  0.13742000  1
  O  1011  1  0.79300300  0.56860100  0.05284100  1
  O  1012  1  0.70463400  0.57875400  0.11175200  1
  O  1013  1  0.79691400  0.62597700  0.06263400  1
  O  1014  1  0.73195900  0.61024300  0.14088000  1
  O  1015  1  0.76150800  0.54844700  0.05352500  1
  O  1016  1  0.71685700  0.55840500  0.08275100  1
  O  1037  1  0.21811200  0.65026800  0.91574900  1
  O  1038  1  0.23914900  0.62594600  0.86752800  1
  O  1039  1  0.21208500  0.56843500  0.95206600  1
  O  1040  1  0.30037900  0.57884600  0.89301100  1
  O  1041  1  0.20806600  0.62584300  0.94229900  1
  O  1042  1  0.27291500  0.61030700  0.86398700  1
  O  1043  1  0.24361100  0.54833100  0.95129000  1
  O  1044  1  0.28819800  0.55836800  0.92193700  1
  O  1065  1  0.78682800  0.35458400  0.91567000  1
  O  1066  1  0.76567600  0.37897800  0.86750100  1
  O  1067  1  0.79299900  0.43633100  0.95205700  1
  O  1068  1  0.70462100  0.42618700  0.89316300  1
  O  1069  1  0.79689200  0.37894000  0.94227400  1
  O  1070  1  0.73192700  0.39467400  0.86404400  1
  O  1071  1  0.76150800  0.45649200  0.95137300  1
  O  1072  1  0.71685500  0.44654200  0.92215500  1
  O  1093  1  0.35464600  0.91572300  0.78680600  1
  O  1094  1  0.37897700  0.86753900  0.76574200  1
  O  1095  1  0.43646900  0.95207200  0.79286500  1
  O  1096  1  0.42609900  0.89306200  0.70454400  1
  O  1097  1  0.37905200  0.94228300  0.79687100  1
  O  1098  1  0.39463000  0.86401700  0.73198200  1
  O  1099  1  0.45658600  0.95131200  0.76134700  1
  O  1100  1  0.44656400  0.92198800  0.71674500  1
  O  1121  1  0.65031900  0.91567900  0.21806800  1
  O  1122  1  0.62594300  0.86750100  0.23922600  1
  O  1123  1  0.56857100  0.95205500  0.21193700  1
  O  1124  1  0.57875100  0.89314600  0.30030100  1
  O  1125  1  0.62595400  0.94228300  0.20802000  1
  O  1126  1  0.61025600  0.86403300  0.27297900  1
  O  1127  1  0.54842000  0.95136200  0.24343100  1
  O  1128  1  0.55839200  0.92214200  0.28808000  1
  O  1149  1  0.65029200  0.08919000  0.78680600  1
  O  1150  1  0.62593300  0.13738600  0.76575300  1
  O  1151  1  0.56849400  0.05281000  0.79286100  1
  O  1152  1  0.57882800  0.11185600  0.70455200  1
  O  1153  1  0.62589100  0.06262500  0.79686800  1
  O  1154  1  0.61027600  0.14090600  0.73199300  1
  O  1155  1  0.54837200  0.05357200  0.76134900  1
  O  1156  1  0.55837200  0.08292100  0.71675100  1
  O  1177  1  0.35462800  0.08918500  0.21803800  1
  O  1178  1  0.37896400  0.13738000  0.23918800  1
  O  1179  1  0.43639900  0.05285100  0.21197900  1
  O  1180  1  0.42612100  0.11178300  0.30031600  1
  O  1181  1  0.37901100  0.06258700  0.20802200  1
  O  1182  1  0.39462100  0.14087200  0.27295300  1
  O  1183  1  0.45652300  0.05355800  0.24349200  1
  O  1184  1  0.44650200  0.08279100  0.28812600  1
  O  1205  1  0.91574200  0.21811300  0.65027300  1
  O  1206  1  0.86752100  0.23914900  0.62595200  1
  O  1207  1  0.95205900  0.21208300  0.56844100  1
  O  1208  1  0.89300300  0.30037900  0.57884800  1
  O  1209  1  0.94229200  0.20806600  0.62584900  1
  O  1210  1  0.86398000  0.27291500  0.61031100  1
  O  1211  1  0.95128300  0.24360900  0.54833500  1
  O  1212  1  0.92192900  0.28819600  0.55837000  1
  O  1233  1  0.91566800  0.78683100  0.35459100  1
  O  1234  1  0.86750100  0.76568000  0.37898600  1
  O  1235  1  0.95205500  0.79300400  0.43633900  1
  O  1236  1  0.89316300  0.70462700  0.42619600  1
  O  1237  1  0.94227400  0.79689700  0.37894700  1
  O  1238  1  0.86404400  0.73193300  0.39468300  1
  O  1239  1  0.95137100  0.76151600  0.45650100  1
  O  1240  1  0.92215500  0.71686100  0.44655100  1
  O  1261  1  0.08909200  0.21809300  0.35469400  1
  O  1262  1  0.13733400  0.23911100  0.37896900  1
  O  1263  1  0.05281500  0.21215700  0.43655500  1
  O  1264  1  0.11193000  0.30039900  0.42603800  1
  O  1265  1  0.06255000  0.20808100  0.37914000  1
  O  1266  1  0.14091200  0.27288500  0.39458100  1
  O  1267  1  0.05362500  0.24369700  0.45663500  1
  O  1268  1  0.08300800  0.28825600  0.44654400  1
  O  1289  1  0.08924400  0.78686300  0.65033700  1
  O  1290  1  0.13741900  0.76570700  0.62593900  1
  O  1291  1  0.05284100  0.79300100  0.56860600  1
  O  1292  1  0.11175200  0.70463000  0.57876000  1
  O  1293  1  0.06263300  0.79691000  0.62598100  1
  O  1294  1  0.14087900  0.73195500  0.61025000  1
  O  1295  1  0.05352600  0.76150600  0.54845100  1
  O  1296  1  0.08275200  0.71685500  0.55841000  1
  O  1317  1  0.63534600  0.77739900  0.09935300  1
  O  1318  1  0.58678400  0.73033700  0.14409200  1
  O  1319  1  0.54451800  0.77272400  0.04532200  1
  O  1320  1  0.56198900  0.70924800  0.10098400  1
  O  1321  1  0.61938200  0.79462600  0.07006400  1
  O  1322  1  0.61147000  0.75829100  0.14538700  1
  O  1323  1  0.56929400  0.80062700  0.04658800  1
  O  1324  1  0.54462000  0.72638500  0.07247400  1
  O  1345  1  0.36953300  0.22749500  0.09936300  1
  O  1346  1  0.41800300  0.27461500  0.14414600  1
  O  1347  1  0.46043100  0.23222400  0.04543800  1
  O  1348  1  0.44284400  0.29568800  0.10105500  1
  O  1349  1  0.38553800  0.21026600  0.07009800  1
  O  1350  1  0.39332600  0.24665000  0.14541200  1
  O  1351  1  0.43567600  0.20430200  0.04669300  1
  O  1352  1  0.46023600  0.27857200  0.07254500  1
  O  1373  1  0.36956900  0.77741500  0.90557300  1
  O  1374  1  0.41811300  0.73034600  0.86082700  1
  O  1375  1  0.46041200  0.77271300  0.95959100  1
  O  1376  1  0.44290400  0.70924000  0.90393300  1
  O  1377  1  0.38554400  0.79463700  0.93486100  1
  O  1378  1  0.39343200  0.75830500  0.85953700  1
  O  1379  1  0.43564200  0.80061900  0.95833400  1
  O  1380  1  0.46028400  0.72637400  0.93243700  1
  O  1401  1  0.63542900  0.22758300  0.90548100  1
  O  1402  1  0.58683200  0.27464800  0.86077000  1
  O  1403  1  0.54460400  0.23214900  0.95951600  1
  O  1404  1  0.56200400  0.29565800  0.90389300  1
  O  1405  1  0.61948200  0.21031300  0.93475400  1
  O  1406  1  0.61153300  0.24670700  0.85945500  1
  O  1407  1  0.56938200  0.20425000  0.95820200  1
  O  1408  1  0.54467700  0.27850800  0.93242100  1
  O  1429  1  0.09935300  0.63535500  0.77739700  1
  O  1430  1  0.14408700  0.58678900  0.73033300  1
  O  1431  1  0.04532300  0.54452700  0.77273900  1
  O  1432  1  0.10097900  0.56199100  0.70925300  1
  O  1433  1  0.07006600  0.61939200  0.79463000  1
  O  1434  1  0.14538600  0.61147800  0.75828700  1
  O  1435  1  0.04659300  0.56930300  0.80063900  1
  O  1436  1  0.07247000  0.54462400  0.72639600  1
  O  1457  1  0.09935800  0.36951800  0.22749700  1
  O  1458  1  0.14414100  0.41799000  0.27461300  1
  O  1459  1  0.04543500  0.46041600  0.23221700  1
  O  1460  1  0.10105100  0.44283600  0.29568200  1
  O  1461  1  0.07009200  0.38552200  0.21026700  1
  O  1462  1  0.14540800  0.39331300  0.24665000  1
  O  1463  1  0.04669000  0.43566000  0.20429600  1
  O  1464  1  0.07253900  0.46022500  0.27856700  1
  O  1485  1  0.90556800  0.36958800  0.77741900  1
  O  1486  1  0.86081800  0.41812600  0.73035000  1
  O  1487  1  0.95958700  0.46042700  0.77270000  1
  O  1488  1  0.90392600  0.44291000  0.70923500  1
  O  1489  1  0.93485500  0.38556200  0.79463700  1
  O  1490  1  0.85953200  0.39344700  0.75831100  1
  O  1491  1  0.95833300  0.43566000  0.80061000  1
  O  1492  1  0.93243000  0.46029500  0.72636500  1
  O  1513  1  0.90548000  0.63541900  0.22758700  1
  O  1514  1  0.86076800  0.58682200  0.27465000  1
  O  1515  1  0.95952100  0.54459600  0.23216700  1
  O  1516  1  0.90389100  0.56200400  0.29566900  1
  O  1517  1  0.93475600  0.61947200  0.21032200  1
  O  1518  1  0.85945500  0.61152400  0.24670700  1
  O  1519  1  0.95821200  0.56937500  0.20426900  1
  O  1520  1  0.93242300  0.54467500  0.27852400  1
  O  1541  1  0.77737300  0.09936600  0.63536400  1
  O  1542  1  0.73031500  0.14409200  0.58678800  1
  O  1543  1  0.77272800  0.04532400  0.54454100  1
  O  1544  1  0.70924000  0.10097900  0.56198900  1
  O  1545  1  0.79460600  0.07007600  0.61941000  1
  O  1546  1  0.75826500  0.14539500  0.61148000  1
  O  1547  1  0.80062500  0.04659700  0.56932500  1
  O  1548  1  0.72638500  0.07246800  0.54463000  1
  O  1569  1  0.22746900  0.09934700  0.36952700  1
  O  1570  1  0.27459100  0.14414000  0.41798500  1
  O  1571  1  0.23221300  0.04543500  0.46042900  1
  O  1572  1  0.29566900  0.10105700  0.44283100  1
  O  1573  1  0.21024400  0.07008300  0.38553800  1
  O  1574  1  0.24662300  0.14540300  0.39331300  1
  O  1575  1  0.20428700  0.04668500  0.43568000  1
  O  1576  1  0.27856100  0.07254700  0.46022900  1
  O  1597  1  0.77743700  0.90557300  0.36959300  1
  O  1598  1  0.73036400  0.86081600  0.41812200  1
  O  1599  1  0.77269100  0.95959100  0.46043500  1
  O  1600  1  0.70923700  0.90391800  0.44290100  1
  O  1601  1  0.79465000  0.93486200  0.38557300  1
  O  1602  1  0.75833300  0.85953300  0.39344900  1
  O  1603  1  0.80060800  0.95834000  0.43567300  1
  O  1604  1  0.72636000  0.93242400  0.46029000  1
  O  1625  1  0.22760500  0.90547000  0.63542700  1
  O  1626  1  0.27466500  0.86076600  0.58682100  1
  O  1627  1  0.23216700  0.95951800  0.54460600  1
  O  1628  1  0.29567700  0.90389300  0.56200000  1
  O  1629  1  0.21033500  0.93474700  0.61948500  1
  O  1630  1  0.24672800  0.85944700  0.61152500  1
  O  1631  1  0.20427200  0.95820400  0.56938900  1
  O  1632  1  0.27852600  0.93242400  0.54467700  1
  O  1653  1  0.77739900  0.63533700  0.90558100  1
  O  1654  1  0.73029100  0.58682200  0.86084000  1
  O  1655  1  0.77270400  0.54448500  0.95956700  1
  O  1656  1  0.70920900  0.56201500  0.90394400  1
  O  1657  1  0.79462400  0.61935500  0.93486100  1
  O  1658  1  0.75825400  0.61150000  0.85954600  1
  O  1659  1  0.80061200  0.56925400  0.95830700  1
  O  1660  1  0.72634900  0.54462800  0.93244300  1
  O  1681  1  0.22757600  0.36951200  0.90551100  1
  O  1682  1  0.27466100  0.41805400  0.86076600  1
  O  1683  1  0.23219700  0.46037400  0.95948700  1
  O  1684  1  0.29569000  0.44289900  0.90387100  1
  O  1685  1  0.21032400  0.38548300  0.93478200  1
  O  1686  1  0.24671100  0.39336200  0.85947100  1
  O  1687  1  0.20429100  0.43560300  0.95819900  1
  O  1688  1  0.27855600  0.46025100  0.93239500  1
  O  1709  1  0.77736700  0.36955500  0.09941100  1
  O  1710  1  0.73029100  0.41815900  0.14409700  1
  O  1711  1  0.77277900  0.46036500  0.04534400  1
  O  1712  1  0.70925000  0.44294300  0.10096200  1
  O  1713  1  0.79462600  0.38549800  0.07013000  1
  O  1714  1  0.75822800  0.39345600  0.14542300  1
  O  1715  1  0.80066700  0.43557200  0.04663700  1
  O  1716  1  0.72641500  0.46028800  0.07245500  1
  O  1737  1  0.22750600  0.63539700  0.09935600  1
  O  1738  1  0.27460600  0.58691800  0.14414200  1
  O  1739  1  0.23219800  0.54449700  0.04543800  1
  O  1740  1  0.29566400  0.56205100  0.10105700  1
  O  1741  1  0.21027500  0.61939900  0.07008800  1
  O  1742  1  0.24664300  0.61159700  0.14541200  1
  O  1743  1  0.20428000  0.56925400  0.04670100  1
  O  1744  1  0.27854600  0.54467000  0.07254300  1
  O  1765  1  0.63534600  0.09930400  0.22750000  1
  O  1766  1  0.58684100  0.14407300  0.27458000  1
  O  1767  1  0.54447500  0.04534600  0.23218900  1
  O  1768  1  0.56199300  0.10098700  0.29565800  1
  O  1769  1  0.61936400  0.07001600  0.21028800  1
  O  1770  1  0.61151800  0.14535500  0.24661700  1
  O  1771  1  0.56924300  0.04659900  0.20428100  1
  O  1772  1  0.54460900  0.07248200  0.27852800  1
  O  1793  1  0.36950000  0.09946400  0.77735300  1
  O  1794  1  0.41812100  0.14414800  0.73027800  1
  O  1795  1  0.46031200  0.04538900  0.77278300  1
  O  1796  1  0.44290400  0.10100400  0.70926100  1
  O  1797  1  0.38544500  0.07019700  0.79463500  1
  O  1798  1  0.39341200  0.14547300  0.75821200  1
  O  1799  1  0.43552600  0.04670300  0.80067600  1
  O  1800  1  0.46023300  0.07248200  0.72641800  1
  O  1821  1  0.36957300  0.90553800  0.22758700  1
  O  1822  1  0.41813300  0.86084100  0.27468700  1
  O  1823  1  0.46041200  0.95955100  0.23217100  1
  O  1824  1  0.44296500  0.90396300  0.29570800  1
  O  1825  1  0.38552700  0.93482200  0.21033900  1
  O  1826  1  0.39343800  0.85952200  0.24674200  1
  O  1827  1  0.43562500  0.95825900  0.20428100  1
  O  1828  1  0.46031700  0.93246800  0.27854500  1
  O  1849  1  0.63538300  0.90555500  0.77740800  1
  O  1850  1  0.58690500  0.86078100  0.73028400  1
  O  1851  1  0.54449600  0.95948300  0.77270400  1
  O  1852  1  0.56205900  0.90387400  0.70922800  1
  O  1853  1  0.61938400  0.93482000  0.79464300  1
  O  1854  1  0.61158200  0.85950600  0.75824700  1
  O  1855  1  0.56925200  0.95821900  0.80062300  1
  O  1856  1  0.54467700  0.93238800  0.72634500  1
  O  1877  1  0.09941100  0.77737300  0.36955800  1
  O  1878  1  0.14409700  0.73029300  0.41816300  1
  O  1879  1  0.04534500  0.77278300  0.46037000  1
  O  1880  1  0.10096200  0.70925300  0.44294600  1
  O  1881  1  0.07012900  0.79463000  0.38550400  1
  O  1882  1  0.14542300  0.75823200  0.39346200  1
  O  1883  1  0.04663800  0.80067100  0.43557700  1
  O  1884  1  0.07245500  0.72641700  0.46029300  1
  O  1905  1  0.09935000  0.22751300  0.63540500  1
  O  1906  1  0.14413600  0.27461300  0.58692500  1
  O  1907  1  0.04543300  0.23220200  0.54450500  1
  O  1908  1  0.10105100  0.29566900  0.56205900  1
  O  1909  1  0.07008400  0.21027800  0.61940600  1
  O  1910  1  0.14540600  0.24665000  0.61160400  1
  O  1911  1  0.04669700  0.20428300  0.56926100  1
  O  1912  1  0.07253800  0.27855000  0.54467500  1
  O  1933  1  0.90557900  0.77739700  0.63534200  1
  O  1934  1  0.86083800  0.73029300  0.58682600  1
  O  1935  1  0.95956500  0.77270600  0.54448800  1
  O  1936  1  0.90394200  0.70921100  0.56201700  1
  O  1937  1  0.93486100  0.79462200  0.61936200  1
  O  1938  1  0.85954600  0.75825200  0.61150700  1
  O  1939  1  0.95830700  0.80061200  0.56926100  1
  O  1940  1  0.93244100  0.72635100  0.54463100  1
  O  1961  1  0.90550900  0.22756600  0.36952000  1
  O  1962  1  0.86076200  0.27465400  0.41806000  1
  O  1963  1  0.95948300  0.23218700  0.46038300  1
  O  1964  1  0.90386700  0.29568200  0.44290600  1
  O  1965  1  0.93478000  0.21031700  0.38549100  1
  O  1966  1  0.85946900  0.24670400  0.39336800  1
  O  1967  1  0.95819300  0.20428100  0.43561200  1
  O  1968  1  0.93239100  0.27855000  0.46025700  1
