# generated using pymatgen
data_H9C13N6O
_symmetry_space_group_name_H-M   'P 1'
_cell_length_a   41.86820000
_cell_length_b   48.67060000
_cell_length_c   55.31330000
_cell_angle_alpha   90.00200000
_cell_angle_beta   90.31480000
_cell_angle_gamma   89.64230000
_symmetry_Int_Tables_number   1
_chemical_formula_structural   H9C13N6O
_chemical_formula_sum   'H576 C832 N384 O64'
_cell_volume   112710.80223371
_cell_formula_units_Z   64
loop_
 _symmetry_equiv_pos_site_id
 _symmetry_equiv_pos_as_xyz
  1  'x, y, z'
loop_
 _atom_site_type_symbol
 _atom_site_label
 _atom_site_symmetry_multiplicity
 _atom_site_fract_x
 _atom_site_fract_y
 _atom_site_fract_z
 _atom_site_occupancy
  H  7  1  0.90514200  0.87147200  0.88973600  1
  H  8  1  0.82764400  0.81938200  0.89972500  1
  H  15  1  0.96931600  0.91953100  0.81202600  1
  H  16  1  0.91043200  0.85090500  0.81800300  1
  H  19  1  0.85179100  0.86572500  0.81398800  1
  H  20  1  0.82395900  0.84233400  0.81812800  1
  H  21  1  0.89950200  0.94118000  0.87437100  1
  H  22  1  0.87415900  0.91549800  0.87627000  1
  H  33  1  0.08557300  0.15398300  0.89032400  1
  H  34  1  0.16356800  0.20567700  0.90033000  1
  H  41  1  0.02053900  0.10584400  0.81255600  1
  H  42  1  0.08070300  0.17367400  0.81827600  1
  H  45  1  0.13896800  0.15823700  0.81493000  1
  H  46  1  0.16691400  0.18158100  0.81900500  1
  H  47  1  0.08981600  0.08424900  0.87586100  1
  H  48  1  0.11569100  0.10954600  0.87763400  1
  H  59  1  0.90592800  0.15261100  0.58367100  1
  H  60  1  0.82752900  0.20474400  0.57371100  1
  H  67  1  0.97278600  0.10571700  0.66119800  1
  H  68  1  0.91197900  0.17377600  0.65517600  1
  H  71  1  0.85378400  0.15842300  0.65948000  1
  H  72  1  0.82547100  0.18174300  0.65536500  1
  H  73  1  0.90142700  0.08281700  0.59974900  1
  H  74  1  0.87560200  0.10844900  0.59774600  1
  H  85  1  0.08496900  0.87123800  0.58458600  1
  H  86  1  0.16349600  0.81946300  0.57447600  1
  H  93  1  0.01941800  0.91895400  0.66140200  1
  H  94  1  0.07878700  0.85002200  0.65562000  1
  H  97  1  0.13758300  0.86465800  0.66058300  1
  H  98  1  0.16606100  0.84155100  0.65635300  1
  H  99  1  0.09105500  0.93981100  0.59912500  1
  H  100  1  0.11721500  0.91456700  0.59894100  1
  H  111  1  0.08485100  0.15379700  0.08469300  1
  H  112  1  0.15990700  0.20820500  0.07381500  1
  H  119  1  0.02248900  0.10591300  0.16283700  1
  H  120  1  0.08129400  0.17452200  0.15634400  1
  H  123  1  0.14059800  0.15959100  0.15933100  1
  H  124  1  0.16784000  0.18343600  0.15488900  1
  H  125  1  0.09148300  0.08420500  0.09996500  1
  H  126  1  0.11673000  0.10993500  0.09781000  1
  H  137  1  0.90660100  0.87187800  0.08404600  1
  H  138  1  0.83115100  0.81769000  0.07323100  1
  H  145  1  0.96980000  0.91986500  0.16228900  1
  H  146  1  0.90998900  0.85187400  0.15596700  1
  H  149  1  0.85104600  0.86726600  0.15840400  1
  H  150  1  0.82376400  0.84339300  0.15404300  1
  H  151  1  0.90118800  0.94147200  0.09856200  1
  H  152  1  0.87549300  0.91605800  0.09650800  1
  H  163  1  0.08409600  0.87256600  0.39026600  1
  H  164  1  0.16011100  0.81809800  0.40104100  1
  H  171  1  0.01921000  0.91956400  0.31232900  1
  H  172  1  0.07977700  0.85139600  0.31880300  1
  H  175  1  0.13867000  0.86681800  0.31555800  1
  H  176  1  0.16639000  0.84302200  0.31995100  1
  H  177  1  0.08974200  0.94228900  0.37438400  1
  H  178  1  0.11542000  0.91656600  0.37662700  1
  H  189  1  0.90733200  0.15340100  0.38926600  1
  H  190  1  0.83136700  0.20767700  0.40027700  1
  H  197  1  0.97092200  0.10586500  0.31182300  1
  H  198  1  0.91183900  0.17490000  0.31831000  1
  H  201  1  0.85233900  0.16017100  0.31434700  1
  H  202  1  0.82454700  0.18382600  0.31889000  1
  H  203  1  0.90028300  0.08498000  0.37473600  1
  H  204  1  0.87423500  0.11031200  0.37525900  1
  H  215  1  0.40596100  0.36965700  0.89019600  1
  H  216  1  0.32815300  0.31744400  0.89873600  1
  H  223  1  0.47003000  0.41940800  0.81261000  1
  H  224  1  0.41122500  0.35068400  0.81814600  1
  H  227  1  0.35258200  0.36686900  0.81439500  1
  H  228  1  0.32454400  0.34353100  0.81786200  1
  H  229  1  0.40099500  0.43998900  0.87575300  1
  H  230  1  0.37572600  0.41423800  0.87754300  1
  H  241  1  0.58537400  0.65515200  0.89071800  1
  H  242  1  0.66341100  0.70724200  0.89927900  1
  H  249  1  0.52050200  0.60532800  0.81305900  1
  H  250  1  0.58034700  0.67340300  0.81840600  1
  H  253  1  0.63865600  0.65677200  0.81527100  1
  H  254  1  0.66666667  0.68016700  0.81867400  1
  H  255  1  0.58915600  0.58486700  0.87706700  1
  H  256  1  0.61487600  0.61029500  0.87875000  1
  H  267  1  0.40672500  0.65439200  0.58316100  1
  H  268  1  0.32802200  0.70662600  0.57464600  1
  H  275  1  0.47345700  0.60565600  0.66047300  1
  H  276  1  0.41282300  0.67388700  0.65499300  1
  H  279  1  0.35461100  0.65724500  0.65902800  1
  H  280  1  0.32609600  0.68050900  0.65558600  1
  H  281  1  0.40271400  0.58394700  0.59824600  1
  H  282  1  0.37699800  0.60967700  0.59639300  1
  H  293  1  0.58463700  0.36997400  0.58423500  1
  H  294  1  0.66330800  0.31789900  0.57551500  1
  H  301  1  0.51918900  0.41915600  0.66110600  1
  H  302  1  0.57852000  0.35018000  0.65558800  1
  H  305  1  0.63729200  0.36619500  0.66028800  1
  H  306  1  0.66587500  0.34305400  0.65670700  1
  H  307  1  0.58968700  0.43909200  0.59787000  1
  H  308  1  0.61591400  0.41387400  0.59772000  1
  H  319  1  0.58479800  0.65495100  0.08417100  1
  H  320  1  0.66018700  0.70954400  0.07482000  1
  H  327  1  0.52245100  0.60541200  0.16220400  1
  H  328  1  0.58093000  0.67427600  0.15609300  1
  H  331  1  0.64022400  0.65821100  0.15900000  1
  H  332  1  0.66763600  0.68204700  0.15523300  1
  H  333  1  0.59087200  0.58478600  0.09868100  1
  H  334  1  0.61597900  0.61063200  0.09663100  1
  H  345  1  0.40736000  0.37011300  0.08361900  1
  H  346  1  0.33140200  0.31598000  0.07418900  1
  H  353  1  0.47040500  0.41982200  0.16172300  1
  H  354  1  0.41072400  0.35170000  0.15584000  1
  H  357  1  0.35181800  0.36829800  0.15800600  1
  H  358  1  0.32429700  0.34450700  0.15428900  1
  H  359  1  0.40257400  0.44031700  0.09722200  1
  H  360  1  0.37696200  0.41482500  0.09527500  1
  H  371  1  0.58395900  0.37135900  0.39075800  1
  H  372  1  0.66033600  0.31678000  0.40008000  1
  H  379  1  0.51905000  0.41993600  0.31292600  1
  H  380  1  0.57933200  0.35154900  0.31902600  1
  H  383  1  0.63820500  0.36807700  0.31587400  1
  H  384  1  0.66609900  0.34431100  0.31962200  1
  H  385  1  0.58910400  0.44165200  0.37560400  1
  H  386  1  0.61464200  0.41581800  0.37774300  1
  H  397  1  0.40802400  0.65515200  0.38968000  1
  H  398  1  0.33157100  0.70942300  0.39927500  1
  H  405  1  0.47159400  0.60592400  0.31244800  1
  H  406  1  0.41260400  0.67507500  0.31840700  1
  H  409  1  0.35311200  0.65913800  0.31465200  1
  H  410  1  0.32508500  0.68272400  0.31855000  1
  H  411  1  0.40162200  0.58608400  0.37604300  1
  H  412  1  0.37561700  0.61146500  0.37646600  1
  H  423  1  0.92783000  0.83346400  0.97595100  1
  H  427  1  0.82144800  0.89339900  0.02562500  1
  H  428  1  0.78461300  0.89606300  0.01433800  1
  H  430  1  0.83295700  0.84265200  0.03656700  1
  H  432  1  0.91452400  0.85343700  0.93198000  1
  H  439  1  0.06345500  0.19259900  0.97611400  1
  H  443  1  0.16904000  0.13156000  0.02664100  1
  H  444  1  0.20583400  0.12853600  0.01564900  1
  H  446  1  0.15818900  0.18236800  0.03750300  1
  H  448  1  0.07649100  0.17245400  0.93226800  1
  H  455  1  0.92805600  0.19070900  0.49796200  1
  H  459  1  0.82230800  0.13109000  0.44740900  1
  H  460  1  0.78545200  0.12866100  0.45832900  1
  H  462  1  0.83335000  0.18159100  0.43643100  1
  H  464  1  0.91485200  0.17109800  0.54179800  1
  H  471  1  0.06303000  0.83389500  0.49826000  1
  H  475  1  0.16885200  0.89351900  0.44862200  1
  H  476  1  0.20562900  0.89612000  0.45995700  1
  H  478  1  0.15790600  0.84260700  0.43783400  1
  H  480  1  0.07605600  0.85370500  0.54227300  1
  H  487  1  0.42821500  0.33066500  0.97593000  1
  H  491  1  0.32187100  0.39021600  0.02577900  1
  H  492  1  0.28500000  0.39288700  0.01456400  1
  H  494  1  0.33351100  0.33934900  0.03676200  1
  H  496  1  0.41483000  0.35092800  0.93211600  1
  H  503  1  0.56325300  0.69344100  0.97616500  1
  H  507  1  0.67102900  0.63535700  0.02648000  1
  H  508  1  0.70792800  0.63339300  0.01552100  1
  H  510  1  0.65829100  0.68576800  0.03766100  1
  H  512  1  0.57691800  0.67371100  0.93242000  1
  H  519  1  0.42840500  0.69350900  0.49795100  1
  H  523  1  0.32268000  0.63431200  0.44719400  1
  H  524  1  0.28579900  0.63184800  0.45805400  1
  H  526  1  0.33383100  0.68496200  0.43623800  1
  H  528  1  0.41515100  0.67356200  0.54162600  1
  H  535  1  0.56272600  0.33307200  0.49820900  1
  H  539  1  0.67076300  0.38968600  0.44881200  1
  H  540  1  0.70764400  0.39120600  0.46011700  1
  H  542  1  0.65788200  0.33918600  0.43767700  1
  H  544  1  0.57639900  0.35242900  0.54213800  1
  H  551  1  0.93842500  0.02276200  0.83391000  1
  H  555  1  0.07182900  0.03379500  0.87411400  1
  H  556  1  0.09979400  0.00979500  0.87020300  1
  H  558  1  0.04168900  0.05554900  0.82021000  1
  H  560  1  0.94519000  0.96972500  0.81883800  1
  H  567  1  0.96068200  0.00555300  0.65866700  1
  H  571  1  0.04227000  0.98471400  0.57177500  1
  H  572  1  0.06243700  0.00933300  0.55774200  1
  H  574  1  0.06593900  0.97695300  0.61481900  1
  H  576  1  0.94904600  0.05584700  0.65572700  1
  H  583  1  0.05256400  0.00261800  0.14070600  1
  H  587  1  0.91888700  0.99210900  0.10086300  1
  H  588  1  0.89106200  0.01620100  0.10490000  1
  H  590  1  0.94913700  0.97013300  0.15456400  1
  H  592  1  0.04608000  0.05568000  0.15587600  1
  H  599  1  0.03086800  0.01973800  0.31522300  1
  H  603  1  0.94803400  0.03984700  0.40157800  1
  H  604  1  0.92780600  0.01507900  0.41535800  1
  H  606  1  0.92491200  0.04780400  0.35842000  1
  H  608  1  0.04259900  0.96942000  0.31804200  1
  H  615  1  0.43869200  0.52235600  0.83544700  1
  H  619  1  0.57293900  0.53350200  0.87417400  1
  H  620  1  0.60080000  0.50950000  0.86990500  1
  H  622  1  0.54217200  0.55523500  0.82117400  1
  H  624  1  0.44520500  0.46949600  0.82004400  1
  H  631  1  0.45959800  0.50542200  0.65677900  1
  H  635  1  0.54439400  0.48545600  0.57147800  1
  H  636  1  0.56536200  0.51016500  0.55827200  1
  H  638  1  0.56623700  0.47666400  0.61492800  1
  H  640  1  0.44899300  0.55597100  0.65442700  1
  H  647  1  0.55295500  0.50239100  0.13981100  1
  H  651  1  0.41924000  0.49158900  0.09999900  1
  H  652  1  0.39144200  0.51572900  0.10391500  1
  H  654  1  0.44922100  0.46994100  0.15344600  1
  H  656  1  0.54687200  0.55532500  0.15471200  1
  H  663  1  0.53126500  0.51987200  0.31623000  1
  H  667  1  0.44851400  0.54022700  0.40257800  1
  H  668  1  0.42807500  0.51554200  0.41629300  1
  H  670  1  0.42548000  0.54849400  0.35948700  1
  H  672  1  0.54280700  0.46956400  0.31903100  1
  H  679  1  0.70066800  0.78633200  0.84257600  1
  H  683  1  0.80902400  0.75284300  0.90182500  1
  H  684  1  0.82808600  0.72267500  0.90077700  1
  H  686  1  0.82420900  0.77930000  0.86510100  1
  H  688  1  0.66948100  0.74605200  0.86159100  1
  H  695  1  0.29028500  0.23768700  0.84304200  1
  H  699  1  0.18237900  0.27221800  0.90148700  1
  H  700  1  0.16338000  0.30239700  0.90000700  1
  H  702  1  0.16688700  0.24531800  0.86493200  1
  H  704  1  0.32163400  0.27824800  0.86183400  1
  H  711  1  0.70134800  0.23761800  0.63116800  1
  H  715  1  0.80879500  0.27216500  0.57278700  1
  H  716  1  0.82756700  0.30223600  0.57443100  1
  H  718  1  0.82455400  0.24476500  0.60903200  1
  H  720  1  0.66960400  0.27837300  0.61263400  1
  H  727  1  0.29056800  0.78631700  0.63091000  1
  H  731  1  0.18192500  0.75181500  0.57299500  1
  H  732  1  0.16315100  0.72175400  0.57468200  1
  H  734  1  0.16689200  0.77911100  0.60935000  1
  H  736  1  0.32203400  0.74573700  0.61222300  1
  H  743  1  0.29006900  0.23855800  0.13047300  1
  H  747  1  0.18253600  0.27182400  0.07014500  1
  H  748  1  0.16420800  0.30234300  0.07036200  1
  H  750  1  0.16666400  0.24702700  0.10765200  1
  H  752  1  0.32220600  0.27820700  0.11079600  1
  H  759  1  0.70180300  0.78759600  0.13059800  1
  H  763  1  0.80854000  0.75452400  0.07015800  1
  H  764  1  0.82689000  0.72401300  0.07034400  1
  H  766  1  0.82491900  0.77918600  0.10780600  1
  H  768  1  0.66956500  0.74771300  0.11076900  1
  H  775  1  0.28939300  0.78798800  0.34402700  1
  H  779  1  0.18287300  0.75360700  0.40357800  1
  H  780  1  0.16485100  0.72315600  0.40277000  1
  H  782  1  0.16637900  0.77936900  0.36653600  1
  H  784  1  0.32211100  0.74784700  0.36323800  1
  H  791  1  0.70154700  0.23880100  0.34371300  1
  H  795  1  0.80907100  0.27175000  0.40368300  1
  H  796  1  0.82718000  0.30217200  0.40336100  1
  H  798  1  0.82497600  0.24683300  0.36614000  1
  H  800  1  0.66920000  0.27867300  0.36349800  1
  H  807  1  0.95536700  0.82777200  0.73379600  1
  H  811  1  0.05065900  0.91606700  0.71269400  1
  H  812  1  0.07446200  0.92948500  0.73365500  1
  H  814  1  0.06517900  0.85900600  0.70320500  1
  H  816  1  0.93767600  0.84271300  0.77640500  1
  H  823  1  0.03991100  0.19329900  0.73218000  1
  H  827  1  0.93431000  0.11269800  0.71483700  1
  H  828  1  0.90898900  0.10307100  0.73619700  1
  H  830  1  0.92715100  0.16964700  0.70152100  1
  H  832  1  0.05531700  0.18062800  0.77593100  1
  H  839  1  0.03890800  0.19551300  0.24192900  1
  H  843  1  0.93629500  0.11229700  0.25932700  1
  H  844  1  0.91151800  0.10155900  0.23781100  1
  H  846  1  0.92684500  0.16998300  0.27149200  1
  H  848  1  0.05515300  0.18224100  0.19851200  1
  H  855  1  0.95113100  0.83201800  0.24220700  1
  H  859  1  0.05752000  0.91207900  0.25883800  1
  H  860  1  0.08269900  0.92150300  0.23731300  1
  H  862  1  0.06428700  0.85484800  0.27233300  1
  H  864  1  0.93553800  0.84456400  0.19838900  1
  H  871  1  0.45353900  0.32943300  0.73316300  1
  H  875  1  0.55319200  0.41460400  0.71345700  1
  H  876  1  0.57783900  0.42647500  0.73459000  1
  H  878  1  0.56439500  0.35715500  0.70245600  1
  H  880  1  0.43721300  0.34347300  0.77626900  1
  H  887  1  0.53989000  0.69303100  0.73252700  1
  H  891  1  0.43522400  0.61178500  0.71411500  1
  H  892  1  0.40993600  0.60168400  0.73532600  1
  H  894  1  0.42758600  0.66887700  0.70134800  1
  H  896  1  0.55522100  0.68000000  0.77617200  1
  H  903  1  0.53807400  0.69588300  0.24113700  1
  H  907  1  0.43811700  0.61079800  0.26034400  1
  H  908  1  0.41364500  0.59896300  0.23908200  1
  H  910  1  0.42692300  0.66855300  0.27134700  1
  H  912  1  0.55466900  0.68187200  0.19801900  1
  H  919  1  0.45092400  0.33277600  0.24231200  1
  H  923  1  0.55787300  0.41232700  0.25900700  1
  H  924  1  0.58320900  0.42152000  0.23750900  1
  H  926  1  0.56400100  0.35518600  0.27273000  1
  H  928  1  0.43576100  0.34500900  0.19836900  1
  H  935  1  0.61852800  0.87147200  0.88973600  1
  H  936  1  0.54103000  0.81938200  0.89972500  1
  H  943  1  0.68270200  0.91953100  0.81202600  1
  H  944  1  0.62381800  0.85090500  0.81800300  1
  H  947  1  0.56517700  0.86572500  0.81398800  1
  H  948  1  0.53734500  0.84233400  0.81812800  1
  H  949  1  0.61288800  0.94118000  0.87437100  1
  H  950  1  0.58754500  0.91549800  0.87627000  1
  H  961  1  0.79895900  0.15398300  0.89032400  1
  H  962  1  0.87695400  0.20567700  0.90033000  1
  H  969  1  0.73392500  0.10584400  0.81255600  1
  H  970  1  0.79408900  0.17367400  0.81827600  1
  H  973  1  0.85235400  0.15823700  0.81493000  1
  H  974  1  0.88030000  0.18158100  0.81900500  1
  H  975  1  0.80320200  0.08424900  0.87586100  1
  H  976  1  0.82907700  0.10954600  0.87763400  1
  H  987  1  0.61931400  0.15261100  0.58367100  1
  H  988  1  0.54091500  0.20474400  0.57371100  1
  H  995  1  0.68617200  0.10571700  0.66119800  1
  H  996  1  0.62536500  0.17377600  0.65517600  1
  H  999  1  0.56717000  0.15842300  0.65948000  1
  H  1000  1  0.53885700  0.18174300  0.65536500  1
  H  1001  1  0.61481300  0.08281700  0.59974900  1
  H  1002  1  0.58898800  0.10844900  0.59774600  1
  H  1013  1  0.79835500  0.87123800  0.58458600  1
  H  1014  1  0.87688200  0.81946300  0.57447600  1
  H  1021  1  0.73280400  0.91895400  0.66140200  1
  H  1022  1  0.79217300  0.85002200  0.65562000  1
  H  1025  1  0.85096900  0.86465800  0.66058300  1
  H  1026  1  0.87944700  0.84155100  0.65635300  1
  H  1027  1  0.80444100  0.93981100  0.59912500  1
  H  1028  1  0.83060100  0.91456700  0.59894100  1
  H  1039  1  0.79823700  0.15379700  0.08469300  1
  H  1040  1  0.87329300  0.20820500  0.07381500  1
  H  1047  1  0.73587500  0.10591300  0.16283700  1
  H  1048  1  0.79468000  0.17452200  0.15634400  1
  H  1051  1  0.85398400  0.15959100  0.15933100  1
  H  1052  1  0.88122600  0.18343600  0.15488900  1
  H  1053  1  0.80486900  0.08420500  0.09996500  1
  H  1054  1  0.83011600  0.10993500  0.09781000  1
  H  1065  1  0.61998700  0.87187800  0.08404600  1
  H  1066  1  0.54453700  0.81769000  0.07323100  1
  H  1073  1  0.68318600  0.91986500  0.16228900  1
  H  1074  1  0.62337500  0.85187400  0.15596700  1
  H  1077  1  0.56443200  0.86726600  0.15840400  1
  H  1078  1  0.53715000  0.84339300  0.15404300  1
  H  1079  1  0.61457400  0.94147200  0.09856200  1
  H  1080  1  0.58887900  0.91605800  0.09650800  1
  H  1091  1  0.79748200  0.87256600  0.39026600  1
  H  1092  1  0.87349700  0.81809800  0.40104100  1
  H  1099  1  0.73259600  0.91956400  0.31232900  1
  H  1100  1  0.79316300  0.85139600  0.31880300  1
  H  1103  1  0.85205600  0.86681800  0.31555800  1
  H  1104  1  0.87977600  0.84302200  0.31995100  1
  H  1105  1  0.80312800  0.94228900  0.37438400  1
  H  1106  1  0.82880600  0.91656600  0.37662700  1
  H  1117  1  0.62071800  0.15340100  0.38926600  1
  H  1118  1  0.54475300  0.20767700  0.40027700  1
  H  1125  1  0.68430800  0.10586500  0.31182300  1
  H  1126  1  0.62522500  0.17490000  0.31831000  1
  H  1129  1  0.56572500  0.16017100  0.31434700  1
  H  1130  1  0.53793300  0.18382600  0.31889000  1
  H  1131  1  0.61366900  0.08498000  0.37473600  1
  H  1132  1  0.58762100  0.11031200  0.37525900  1
  H  1143  1  0.11934700  0.36965700  0.89019600  1
  H  1144  1  0.04153900  0.31744400  0.89873600  1
  H  1151  1  0.18341600  0.41940800  0.81261000  1
  H  1152  1  0.12461100  0.35068400  0.81814600  1
  H  1155  1  0.06596800  0.36686900  0.81439500  1
  H  1156  1  0.03793000  0.34353100  0.81786200  1
  H  1157  1  0.11438100  0.43998900  0.87575300  1
  H  1158  1  0.08911200  0.41423800  0.87754300  1
  H  1169  1  0.29876000  0.65515200  0.89071800  1
  H  1170  1  0.37679700  0.70724200  0.89927900  1
  H  1177  1  0.23388800  0.60532800  0.81305900  1
  H  1178  1  0.29373300  0.67340300  0.81840600  1
  H  1181  1  0.35204200  0.65677200  0.81527100  1
  H  1182  1  0.38006700  0.68016700  0.81867400  1
  H  1183  1  0.30254200  0.58486700  0.87706700  1
  H  1184  1  0.32826200  0.61029500  0.87875000  1
  H  1195  1  0.12011100  0.65439200  0.58316100  1
  H  1196  1  0.04140800  0.70662600  0.57464600  1
  H  1203  1  0.18684300  0.60565600  0.66047300  1
  H  1204  1  0.12620900  0.67388700  0.65499300  1
  H  1207  1  0.06799700  0.65724500  0.65902800  1
  H  1208  1  0.03948200  0.68050900  0.65558600  1
  H  1209  1  0.11610000  0.58394700  0.59824600  1
  H  1210  1  0.09038400  0.60967700  0.59639300  1
  H  1221  1  0.29802300  0.36997400  0.58423500  1
  H  1222  1  0.37669400  0.31789900  0.57551500  1
  H  1229  1  0.23257500  0.41915600  0.66110600  1
  H  1230  1  0.29190600  0.35018000  0.65558800  1
  H  1233  1  0.35067800  0.36619500  0.66028800  1
  H  1234  1  0.37926100  0.34305400  0.65670700  1
  H  1235  1  0.30307300  0.43909200  0.59787000  1
  H  1236  1  0.32930000  0.41387400  0.59772000  1
  H  1247  1  0.29818400  0.65495100  0.08417100  1
  H  1248  1  0.37357300  0.70954400  0.07482000  1
  H  1255  1  0.23583700  0.60541200  0.16220400  1
  H  1256  1  0.29431600  0.67427600  0.15609300  1
  H  1259  1  0.35361000  0.65821100  0.15900000  1
  H  1260  1  0.38102200  0.68204700  0.15523300  1
  H  1261  1  0.30425800  0.58478600  0.09868100  1
  H  1262  1  0.32936500  0.61063200  0.09663100  1
  H  1273  1  0.12074600  0.37011300  0.08361900  1
  H  1274  1  0.04478800  0.31598000  0.07418900  1
  H  1281  1  0.18379100  0.41982200  0.16172300  1
  H  1282  1  0.12411000  0.35170000  0.15584000  1
  H  1285  1  0.06520400  0.36829800  0.15800600  1
  H  1286  1  0.03768300  0.34450700  0.15428900  1
  H  1287  1  0.11596000  0.44031700  0.09722200  1
  H  1288  1  0.09034800  0.41482500  0.09527500  1
  H  1299  1  0.29734500  0.37135900  0.39075800  1
  H  1300  1  0.37372200  0.31678000  0.40008000  1
  H  1307  1  0.23243600  0.41993600  0.31292600  1
  H  1308  1  0.29271800  0.35154900  0.31902600  1
  H  1311  1  0.35159100  0.36807700  0.31587400  1
  H  1312  1  0.37948500  0.34431100  0.31962200  1
  H  1313  1  0.30249000  0.44165200  0.37560400  1
  H  1314  1  0.32802800  0.41581800  0.37774300  1
  H  1325  1  0.12141000  0.65515200  0.38968000  1
  H  1326  1  0.04495700  0.70942300  0.39927500  1
  H  1333  1  0.18498000  0.60592400  0.31244800  1
  H  1334  1  0.12599000  0.67507500  0.31840700  1
  H  1337  1  0.06649800  0.65913800  0.31465200  1
  H  1338  1  0.03847100  0.68272400  0.31855000  1
  H  1339  1  0.11500800  0.58608400  0.37604300  1
  H  1340  1  0.08900300  0.61146500  0.37646600  1
  H  1351  1  0.64121600  0.83346400  0.97595100  1
  H  1355  1  0.53483400  0.89339900  0.02562500  1
  H  1356  1  0.49799900  0.89606300  0.01433800  1
  H  1358  1  0.54634300  0.84265200  0.03656700  1
  H  1360  1  0.62791000  0.85343700  0.93198000  1
  H  1367  1  0.77684100  0.19259900  0.97611400  1
  H  1371  1  0.88242600  0.13156000  0.02664100  1
  H  1372  1  0.91922030  0.12853600  0.01564900  1
  H  1374  1  0.87157500  0.18236800  0.03750300  1
  H  1376  1  0.78987700  0.17245400  0.93226800  1
  H  1383  1  0.64144200  0.19070900  0.49796200  1
  H  1387  1  0.53569400  0.13109000  0.44740900  1
  H  1388  1  0.49883800  0.12866100  0.45832900  1
  H  1390  1  0.54673600  0.18159100  0.43643100  1
  H  1392  1  0.62823800  0.17109800  0.54179800  1
  H  1399  1  0.77641600  0.83389500  0.49826000  1
  H  1403  1  0.88223800  0.89351900  0.44862200  1
  H  1404  1  0.91901530  0.89612000  0.45995700  1
  H  1406  1  0.87129200  0.84260700  0.43783400  1
  H  1408  1  0.78944200  0.85370500  0.54227300  1
  H  1415  1  0.14160100  0.33066500  0.97593000  1
  H  1419  1  0.03525700  0.39021600  0.02577900  1
  H  1420  1  0.99838629  0.39288700  0.01456400  1
  H  1422  1  0.04689700  0.33934900  0.03676200  1
  H  1424  1  0.12821600  0.35092800  0.93211600  1
  H  1431  1  0.27663900  0.69344100  0.97616500  1
  H  1435  1  0.38441500  0.63535700  0.02648000  1
  H  1436  1  0.42131400  0.63339300  0.01552100  1
  H  1438  1  0.37167700  0.68576800  0.03766100  1
  H  1440  1  0.29030400  0.67371100  0.93242000  1
  H  1447  1  0.14179100  0.69350900  0.49795100  1
  H  1451  1  0.03606600  0.63431200  0.44719400  1
  H  1452  1  0.99918529  0.63184800  0.45805400  1
  H  1454  1  0.04721700  0.68496200  0.43623800  1
  H  1456  1  0.12853700  0.67356200  0.54162600  1
  H  1463  1  0.27611200  0.33307200  0.49820900  1
  H  1467  1  0.38414900  0.38968600  0.44881200  1
  H  1468  1  0.42103000  0.39120600  0.46011700  1
  H  1470  1  0.37126800  0.33918600  0.43767700  1
  H  1472  1  0.28978500  0.35242900  0.54213800  1
  H  1479  1  0.65181100  0.02276200  0.83391000  1
  H  1483  1  0.78521500  0.03379500  0.87411400  1
  H  1484  1  0.81318000  0.00979500  0.87020300  1
  H  1486  1  0.75507500  0.05554900  0.82021000  1
  H  1488  1  0.65857600  0.96972500  0.81883800  1
  H  1495  1  0.67406800  0.00555300  0.65866700  1
  H  1499  1  0.75565600  0.98471400  0.57177500  1
  H  1500  1  0.77582300  0.00933300  0.55774200  1
  H  1502  1  0.77932500  0.97695300  0.61481900  1
  H  1504  1  0.66243200  0.05584700  0.65572700  1
  H  1511  1  0.76595000  0.00261800  0.14070600  1
  H  1515  1  0.63227300  0.99210900  0.10086300  1
  H  1516  1  0.60444800  0.01620100  0.10490000  1
  H  1518  1  0.66252300  0.97013300  0.15456400  1
  H  1520  1  0.75946600  0.05568000  0.15587600  1
  H  1527  1  0.74425400  0.01973800  0.31522300  1
  H  1531  1  0.66142000  0.03984700  0.40157800  1
  H  1532  1  0.64119200  0.01507900  0.41535800  1
  H  1534  1  0.63829800  0.04780400  0.35842000  1
  H  1536  1  0.75598500  0.96942000  0.31804200  1
  H  1543  1  0.15207800  0.52235600  0.83544700  1
  H  1547  1  0.28632500  0.53350200  0.87417400  1
  H  1548  1  0.31418600  0.50950000  0.86990500  1
  H  1550  1  0.25555800  0.55523500  0.82117400  1
  H  1552  1  0.15859100  0.46949600  0.82004400  1
  H  1559  1  0.17298400  0.50542200  0.65677900  1
  H  1563  1  0.25778000  0.48545600  0.57147800  1
  H  1564  1  0.27874800  0.51016500  0.55827200  1
  H  1566  1  0.27962300  0.47666400  0.61492800  1
  H  1568  1  0.16237900  0.55597100  0.65442700  1
  H  1575  1  0.26634100  0.50239100  0.13981100  1
  H  1579  1  0.13262600  0.49158900  0.09999900  1
  H  1580  1  0.10482800  0.51572900  0.10391500  1
  H  1582  1  0.16260700  0.46994100  0.15344600  1
  H  1584  1  0.26025800  0.55532500  0.15471200  1
  H  1591  1  0.24465100  0.51987200  0.31623000  1
  H  1595  1  0.16190000  0.54022700  0.40257800  1
  H  1596  1  0.14146100  0.51554200  0.41629300  1
  H  1598  1  0.13886600  0.54849400  0.35948700  1
  H  1600  1  0.25619300  0.46956400  0.31903100  1
  H  1607  1  0.41405400  0.78633200  0.84257600  1
  H  1611  1  0.52241000  0.75284300  0.90182500  1
  H  1612  1  0.54147200  0.72267500  0.90077700  1
  H  1614  1  0.53759500  0.77930000  0.86510100  1
  H  1616  1  0.38286700  0.74605200  0.86159100  1
  H  1623  1  0.00367100  0.23768700  0.84304200  1
  H  1627  1  0.89576500  0.27221800  0.90148700  1
  H  1628  1  0.87676600  0.30239700  0.90000700  1
  H  1630  1  0.88027300  0.24531800  0.86493200  1
  H  1632  1  0.03502000  0.27824800  0.86183400  1
  H  1639  1  0.41473400  0.23761800  0.63116800  1
  H  1643  1  0.52218100  0.27216500  0.57278700  1
  H  1644  1  0.54095300  0.30223600  0.57443100  1
  H  1646  1  0.53794000  0.24476500  0.60903200  1
  H  1648  1  0.38299000  0.27837300  0.61263400  1
  H  1655  1  0.00395400  0.78631700  0.63091000  1
  H  1659  1  0.89531100  0.75181500  0.57299500  1
  H  1660  1  0.87653700  0.72175400  0.57468200  1
  H  1662  1  0.88027800  0.77911100  0.60935000  1
  H  1664  1  0.03542000  0.74573700  0.61222300  1
  H  1671  1  0.00345500  0.23855800  0.13047300  1
  H  1675  1  0.89592200  0.27182400  0.07014500  1
  H  1676  1  0.87759400  0.30234300  0.07036200  1
  H  1678  1  0.88005000  0.24702700  0.10765200  1
  H  1680  1  0.03559200  0.27820700  0.11079600  1
  H  1687  1  0.41518900  0.78759600  0.13059800  1
  H  1691  1  0.52192600  0.75452400  0.07015800  1
  H  1692  1  0.54027600  0.72401300  0.07034400  1
  H  1694  1  0.53830500  0.77918600  0.10780600  1
  H  1696  1  0.38295100  0.74771300  0.11076900  1
  H  1703  1  0.00277900  0.78798800  0.34402700  1
  H  1707  1  0.89625900  0.75360700  0.40357800  1
  H  1708  1  0.87823700  0.72315600  0.40277000  1
  H  1710  1  0.87976500  0.77936900  0.36653600  1
  H  1712  1  0.03549700  0.74784700  0.36323800  1
  H  1719  1  0.41493300  0.23880100  0.34371300  1
  H  1723  1  0.52245700  0.27175000  0.40368300  1
  H  1724  1  0.54056600  0.30217200  0.40336100  1
  H  1726  1  0.53836200  0.24683300  0.36614000  1
  H  1728  1  0.38258600  0.27867300  0.36349800  1
  H  1735  1  0.66875300  0.82777200  0.73379600  1
  H  1739  1  0.76404500  0.91606700  0.71269400  1
  H  1740  1  0.78784800  0.92948500  0.73365500  1
  H  1742  1  0.77856500  0.85900600  0.70320500  1
  H  1744  1  0.65106200  0.84271300  0.77640500  1
  H  1751  1  0.75329700  0.19329900  0.73218000  1
  H  1755  1  0.64769600  0.11269800  0.71483700  1
  H  1756  1  0.62237500  0.10307100  0.73619700  1
  H  1758  1  0.64053700  0.16964700  0.70152100  1
  H  1760  1  0.76870300  0.18062800  0.77593100  1
  H  1767  1  0.75229400  0.19551300  0.24192900  1
  H  1771  1  0.64968100  0.11229700  0.25932700  1
  H  1772  1  0.62490400  0.10155900  0.23781100  1
  H  1774  1  0.64023100  0.16998300  0.27149200  1
  H  1776  1  0.76853900  0.18224100  0.19851200  1
  H  1783  1  0.66451700  0.83201800  0.24220700  1
  H  1787  1  0.77090600  0.91207900  0.25883800  1
  H  1788  1  0.79608500  0.92150300  0.23731300  1
  H  1790  1  0.77767300  0.85484800  0.27233300  1
  H  1792  1  0.64892400  0.84456400  0.19838900  1
  H  1799  1  0.16692500  0.32943300  0.73316300  1
  H  1803  1  0.26657800  0.41460400  0.71345700  1
  H  1804  1  0.29122500  0.42647500  0.73459000  1
  H  1806  1  0.27778100  0.35715500  0.70245600  1
  H  1808  1  0.15059900  0.34347300  0.77626900  1
  H  1815  1  0.25327600  0.69303100  0.73252700  1
  H  1819  1  0.14861000  0.61178500  0.71411500  1
  H  1820  1  0.12332200  0.60168400  0.73532600  1
  H  1822  1  0.14097200  0.66887700  0.70134800  1
  H  1824  1  0.26860700  0.68000000  0.77617200  1
  H  1831  1  0.25146000  0.69588300  0.24113700  1
  H  1835  1  0.15150300  0.61079800  0.26034400  1
  H  1836  1  0.12703100  0.59896300  0.23908200  1
  H  1838  1  0.14030900  0.66855300  0.27134700  1
  H  1840  1  0.26805500  0.68187200  0.19801900  1
  H  1847  1  0.16431000  0.33277600  0.24231200  1
  H  1851  1  0.27125900  0.41232700  0.25900700  1
  H  1852  1  0.29659500  0.42152000  0.23750900  1
  H  1854  1  0.27738700  0.35518600  0.27273000  1
  H  1856  1  0.14914700  0.34500900  0.19836900  1
  C  1  1  0.87865700  0.86442300  0.85746900  1
  C  2  1  0.88631000  0.86104300  0.88233600  1
  C  3  1  0.86745100  0.84516200  0.89790000  1
  C  4  1  0.84166700  0.83052400  0.88819700  1
  C  5  1  0.83429400  0.83089000  0.86325200  1
  C  6  1  0.85197600  0.84907000  0.84792000  1
  C  9  1  0.89995800  0.88210000  0.84374300  1
  C  10  1  0.90963800  0.90915000  0.85158100  1
  C  11  1  0.93552700  0.92293400  0.84000100  1
  C  12  1  0.95047900  0.90996400  0.82024500  1
  C  13  1  0.94047200  0.88438300  0.81139700  1
  C  14  1  0.91595100  0.87036200  0.82358500  1
  C  27  1  0.11210300  0.16036900  0.85819500  1
  C  28  1  0.10447500  0.16419800  0.88295200  1
  C  29  1  0.12352200  0.18013100  0.89850400  1
  C  30  1  0.14941700  0.19447000  0.88882500  1
  C  31  1  0.15669300  0.19374400  0.86392900  1
  C  32  1  0.13890200  0.17540700  0.84867900  1
  C  35  1  0.09055300  0.14274700  0.84446800  1
  C  36  1  0.08037200  0.11596000  0.85253900  1
  C  37  1  0.05427400  0.10233800  0.84085800  1
  C  38  1  0.03962100  0.11520400  0.82079500  1
  C  39  1  0.05015900  0.14047000  0.81171200  1
  C  40  1  0.07487900  0.15435300  0.82398800  1
  C  53  1  0.87979900  0.15969700  0.61592000  1
  C  54  1  0.88704900  0.16304700  0.59106000  1
  C  55  1  0.86771600  0.17891500  0.57549600  1
  C  56  1  0.84185500  0.19354200  0.58521100  1
  C  57  1  0.83484900  0.19308500  0.61015300  1
  C  58  1  0.85304200  0.17498100  0.62550400  1
  C  61  1  0.90173800  0.14231200  0.62967700  1
  C  62  1  0.91165800  0.11520800  0.62204900  1
  C  63  1  0.93815300  0.10176800  0.63358900  1
  C  64  1  0.95363000  0.11514800  0.65294600  1
  C  65  1  0.94318100  0.14068000  0.66173500  1
  C  66  1  0.91790100  0.15433600  0.64966000  1
  C  79  1  0.11144100  0.86391500  0.61685300  1
  C  80  1  0.10390800  0.86071900  0.59195700  1
  C  81  1  0.12313000  0.84503700  0.57633800  1
  C  82  1  0.14920100  0.83047600  0.58602100  1
  C  83  1  0.15642400  0.83069300  0.61099200  1
  C  84  1  0.13829200  0.84858400  0.62643000  1
  C  87  1  0.08996200  0.88161600  0.63054300  1
  C  88  1  0.08077400  0.90896700  0.62295700  1
  C  89  1  0.05407200  0.92254800  0.63400000  1
  C  90  1  0.03814400  0.90917900  0.65297700  1
  C  91  1  0.04799400  0.88343500  0.66178300  1
  C  92  1  0.07326100  0.86957100  0.65011000  1
  C  105  1  0.11221100  0.16108100  0.11648200  1
  C  106  1  0.10387700  0.16434900  0.09173700  1
  C  107  1  0.12196400  0.18030400  0.07576600  1
  C  108  1  0.14701200  0.19618100  0.08534600  1
  C  109  1  0.15557700  0.19541300  0.11008200  1
  C  110  1  0.13895400  0.17667400  0.12557700  1
  C  113  1  0.09143000  0.14329300  0.13056200  1
  C  114  1  0.08166500  0.11622400  0.12284600  1
  C  115  1  0.05597200  0.10242800  0.13466000  1
  C  116  1  0.04127100  0.11543600  0.15450800  1
  C  117  1  0.05138600  0.14103000  0.16326000  1
  C  118  1  0.07577100  0.15502400  0.15087900  1
  C  131  1  0.87930100  0.86512400  0.11573000  1
  C  132  1  0.88755200  0.86148900  0.09107700  1
  C  133  1  0.86926100  0.84547400  0.07513100  1
  C  134  1  0.84417900  0.82979800  0.08471500  1
  C  135  1  0.83581400  0.83083600  0.10941500  1
  C  136  1  0.85252900  0.84974400  0.12481800  1
  C  139  1  0.90031800  0.88287800  0.12980200  1
  C  140  1  0.91047000  0.90973300  0.12189300  1
  C  141  1  0.93634000  0.92341200  0.13380700  1
  C  142  1  0.95079800  0.91051500  0.15393600  1
  C  143  1  0.94027300  0.88517300  0.16286700  1
  C  144  1  0.91574100  0.87126500  0.15039100  1
  C  157  1  0.11112300  0.86529600  0.35849000  1
  C  158  1  0.10317400  0.86201500  0.38322400  1
  C  159  1  0.12169300  0.84599900  0.39916800  1
  C  160  1  0.14689100  0.83020100  0.38956800  1
  C  161  1  0.15507400  0.83108500  0.36483300  1
  C  162  1  0.13793900  0.84977300  0.34933900  1
  C  165  1  0.08972500  0.88283600  0.34440000  1
  C  166  1  0.07977600  0.90996300  0.35194400  1
  C  167  1  0.05351800  0.92347900  0.34016900  1
  C  168  1  0.03828300  0.91012700  0.32068900  1
  C  169  1  0.04876100  0.88456500  0.31199100  1
  C  170  1  0.07387100  0.87087000  0.32424100  1
  C  183  1  0.88003300  0.16105200  0.35746000  1
  C  184  1  0.88823400  0.16408200  0.38224400  1
  C  185  1  0.86979000  0.17984400  0.39827500  1
  C  186  1  0.84451500  0.19574500  0.38872200  1
  C  187  1  0.83615500  0.19518500  0.36394500  1
  C  188  1  0.85317000  0.17669200  0.34833500  1
  C  191  1  0.90097100  0.14324200  0.34339600  1
  C  192  1  0.91021000  0.11585400  0.35083900  1
  C  193  1  0.93667300  0.10224900  0.33950400  1
  C  194  1  0.95230300  0.11563100  0.32039000  1
  C  195  1  0.94242300  0.14143600  0.31174300  1
  C  196  1  0.91735100  0.15529600  0.32366800  1
  C  209  1  0.37960200  0.36362700  0.85773500  1
  C  210  1  0.38713100  0.35947200  0.88253200  1
  C  211  1  0.36817100  0.34311500  0.89767400  1
  C  212  1  0.34238300  0.32880900  0.88753200  1
  C  213  1  0.33492700  0.33026200  0.86263900  1
  C  214  1  0.35272600  0.34887500  0.84781000  1
  C  217  1  0.40105100  0.38146900  0.84432400  1
  C  218  1  0.41082700  0.40837400  0.85245400  1
  C  219  1  0.43653100  0.42236900  0.84082700  1
  C  220  1  0.45130900  0.40969400  0.82084700  1
  C  221  1  0.44126400  0.38422500  0.81177900  1
  C  222  1  0.41685100  0.37004000  0.82394300  1
  C  235  1  0.61169400  0.66067600  0.85839300  1
  C  236  1  0.60421400  0.66519600  0.88308600  1
  C  237  1  0.62330500  0.68164500  0.89821700  1
  C  238  1  0.64909900  0.69577500  0.88809700  1
  C  239  1  0.65640900  0.69404600  0.86325200  1
  C  240  1  0.63858400  0.67523400  0.84850400  1
  C  243  1  0.59004300  0.64286100  0.84497200  1
  C  244  1  0.57987600  0.61618100  0.85330000  1
  C  245  1  0.55399300  0.60230100  0.84157600  1
  C  246  1  0.53944600  0.61486600  0.82131800  1
  C  247  1  0.54991400  0.64007200  0.81206200  1
  C  248  1  0.57448700  0.65416400  0.82431400  1
  C  261  1  0.38073200  0.66045200  0.61560200  1
  C  262  1  0.38785600  0.66458800  0.59081400  1
  C  263  1  0.36842100  0.68092800  0.57567300  1
  C  264  1  0.34255600  0.69520700  0.58582200  1
  C  265  1  0.33549200  0.69367400  0.61071500  1
  C  266  1  0.35380000  0.67514000  0.62556600  1
  C  269  1  0.40279400  0.64286600  0.62902600  1
  C  270  1  0.41274400  0.61590100  0.62107700  1
  C  271  1  0.43906100  0.60220900  0.63263100  1
  C  272  1  0.45441800  0.61526300  0.65222100  1
  C  273  1  0.44398100  0.64068800  0.66124800  1
  C  274  1  0.41881500  0.65455200  0.64923100  1
  C  287  1  0.61096500  0.36359400  0.61669400  1
  C  288  1  0.60355700  0.35966700  0.59185900  1
  C  289  1  0.62283800  0.34348900  0.57664000  1
  C  290  1  0.64884900  0.32917100  0.58674800  1
  C  291  1  0.65613000  0.33041500  0.61167500  1
  C  292  1  0.63795500  0.34878100  0.62663200  1
  C  295  1  0.58933900  0.38143400  0.63009800  1
  C  296  1  0.57999500  0.40864400  0.62224500  1
  C  297  1  0.55348700  0.42238600  0.63340500  1
  C  298  1  0.53779800  0.40926600  0.65263400  1
  C  299  1  0.54771100  0.38361400  0.66160100  1
  C  300  1  0.57286800  0.36963900  0.64989600  1
  C  313  1  0.61189600  0.66136300  0.11620500  1
  C  314  1  0.60378000  0.66530900  0.09149800  1
  C  315  1  0.62201800  0.68170900  0.07594700  1
  C  316  1  0.64703900  0.69729700  0.08599500  1
  C  317  1  0.65553200  0.69559100  0.11070200  1
  C  318  1  0.63875000  0.67646400  0.12570400  1
  C  321  1  0.59094900  0.64340300  0.12995600  1
  C  322  1  0.58119600  0.61643500  0.12198100  1
  C  323  1  0.55570100  0.60239300  0.13382500  1
  C  324  1  0.54109700  0.61511300  0.15385900  1
  C  325  1  0.55112200  0.64066000  0.16277500  1
  C  326  1  0.57537400  0.65485400  0.15043100  1
  C  339  1  0.38016100  0.36436100  0.11547800  1
  C  340  1  0.38828800  0.35997900  0.09089800  1
  C  341  1  0.36985500  0.34355000  0.07535000  1
  C  342  1  0.34468600  0.32826600  0.08534800  1
  C  343  1  0.33630900  0.33028200  0.10999300  1
  C  344  1  0.35319200  0.34955500  0.12491700  1
  C  347  1  0.40133000  0.38228200  0.12924400  1
  C  348  1  0.41156300  0.40899400  0.12104300  1
  C  349  1  0.43724000  0.42290400  0.13299900  1
  C  350  1  0.45152800  0.41031300  0.15334900  1
  C  351  1  0.44098400  0.38507400  0.16248600  1
  C  352  1  0.41657400  0.37098400  0.15004000  1
  C  365  1  0.61072800  0.36493900  0.35874700  1
  C  366  1  0.60299900  0.36100100  0.38344500  1
  C  367  1  0.62167100  0.34456900  0.39898900  1
  C  368  1  0.64685900  0.32907500  0.38894500  1
  C  369  1  0.65495500  0.33085500  0.36424100  1
  C  370  1  0.63765600  0.34990600  0.34921400  1
  C  373  1  0.58917300  0.38264200  0.34496900  1
  C  374  1  0.57924300  0.40967400  0.35275900  1
  C  375  1  0.55316300  0.42342800  0.34095900  1
  C  376  1  0.53800600  0.41034300  0.32129400  1
  C  377  1  0.54841800  0.38483600  0.31242700  1
  C  378  1  0.57340200  0.37095000  0.32464800  1
  C  391  1  0.38084500  0.66179500  0.35767100  1
  C  392  1  0.38891100  0.66558500  0.38239600  1
  C  393  1  0.37032500  0.68178100  0.39802800  1
  C  394  1  0.34497300  0.69729800  0.38805200  1
  C  395  1  0.33661200  0.69575000  0.36331400  1
  C  396  1  0.35380000  0.67687700  0.34817600  1
  C  399  1  0.40195000  0.64381500  0.34393700  1
  C  400  1  0.41125000  0.61655500  0.35168400  1
  C  401  1  0.43755100  0.60273600  0.34032600  1
  C  402  1  0.45307400  0.61583900  0.32101200  1
  C  403  1  0.44318600  0.64154100  0.31214300  1
  C  404  1  0.41819300  0.65557100  0.32400400  1
  C  417  1  0.86551900  0.84949600  0.00985500  1
  C  419  1  0.90554800  0.84088200  0.97983000  1
  C  420  1  0.88463900  0.85013800  0.96148400  1
  C  422  1  0.84470100  0.85996900  0.99158100  1
  C  424  1  0.81361700  0.87104500  0.99503900  1
  C  429  1  0.85606700  0.84554300  0.03349300  1
  C  431  1  0.89223300  0.85008900  0.93725000  1
  C  433  1  0.12552400  0.17586400  0.01053100  1
  C  435  1  0.08563800  0.18495800  0.98017200  1
  C  436  1  0.10643600  0.17553800  0.96199100  1
  C  438  1  0.14621300  0.16522900  0.99241800  1
  C  440  1  0.17715000  0.15383800  0.99612200  1
  C  445  1  0.13503300  0.17972600  0.03424900  1
  C  447  1  0.09882500  0.17565000  0.93769700  1
  C  449  1  0.86596800  0.17488700  0.46346800  1
  C  451  1  0.90584200  0.18339000  0.49387700  1
  C  452  1  0.88495000  0.17428600  0.51203300  1
  C  454  1  0.84518700  0.16455600  0.48156000  1
  C  456  1  0.81419600  0.15363100  0.47782900  1
  C  461  1  0.85652300  0.17889400  0.43974000  1
  C  463  1  0.89248900  0.17432200  0.53633600  1
  C  465  1  0.12521000  0.84984300  0.46443900  1
  C  467  1  0.08522200  0.84129400  0.49440500  1
  C  468  1  0.10599700  0.85048700  0.51277600  1
  C  470  1  0.14586700  0.86027600  0.48273200  1
  C  472  1  0.17683500  0.87127100  0.47929500  1
  C  477  1  0.13478800  0.84579500  0.44083700  1
  C  479  1  0.09839100  0.85034100  0.53700300  1
  C  481  1  0.36590100  0.34636900  0.00995300  1
  C  483  1  0.40587300  0.33792500  0.97983600  1
  C  484  1  0.38486500  0.34707200  0.96150200  1
  C  486  1  0.34498800  0.35675600  0.99169400  1
  C  488  1  0.31391500  0.36782900  0.99522500  1
  C  493  1  0.35656400  0.34249200  0.03365100  1
  C  495  1  0.39254700  0.34731300  0.93726200  1
  C  497  1  0.62597400  0.67859100  0.01057300  1
  C  499  1  0.58577000  0.68655000  0.98019800  1
  C  500  1  0.60694300  0.67786600  0.96197700  1
  C  502  1  0.64708300  0.66866800  0.99241900  1
  C  504  1  0.67840900  0.65810000  0.99611300  1
  C  509  1  0.63526600  0.68250100  0.03435700  1
  C  511  1  0.59917900  0.67753900  0.93768800  1
  C  513  1  0.36629900  0.67803300  0.46334700  1
  C  515  1  0.40613400  0.68634100  0.49384000  1
  C  516  1  0.38515800  0.67731800  0.51197800  1
  C  518  1  0.34543800  0.66775600  0.48141600  1
  C  520  1  0.31446000  0.65682900  0.47761400  1
  C  525  1  0.35695200  0.68199500  0.43957200  1
  C  527  1  0.39278900  0.67705600  0.53628600  1
  C  529  1  0.62555400  0.34712400  0.46440100  1
  C  531  1  0.58525600  0.33970800  0.49438400  1
  C  532  1  0.60641500  0.34813400  0.51280100  1
  C  534  1  0.64664100  0.35681400  0.48274100  1
  C  536  1  0.67800100  0.36697000  0.47932000  1
  C  541  1  0.63491500  0.34302500  0.44072900  1
  C  543  1  0.59865900  0.34841700  0.53702500  1
  C  545  1  0.01463400  0.03581500  0.84514300  1
  C  547  1  0.96128900  0.01848700  0.83937700  1
  C  548  1  0.97159800  0.99118700  0.84335400  1
  C  550  1  0.02526900  0.00845200  0.84981600  1
  C  552  1  0.05755200  0.00086700  0.85419900  1
  C  557  1  0.03455300  0.05681700  0.83731700  1
  C  559  1  0.95318300  0.96897200  0.83582200  1
  C  561  1  0.02027000  0.99144900  0.62148000  1
  C  563  1  0.97566600  0.00870200  0.64441300  1
  C  564  1  0.97506300  0.03354700  0.63120800  1
  C  566  1  0.01923100  0.01603800  0.60742100  1
  C  568  1  0.03998300  0.02224700  0.58801400  1
  C  573  1  0.04449100  0.97148200  0.62043800  1
  C  575  1  0.95641900  0.05587700  0.63862400  1
  C  577  1  0.97624600  0.98984000  0.12964500  1
  C  579  1  0.02969300  0.00698000  0.13530900  1
  C  580  1  0.01948800  0.03432200  0.13140200  1
  C  582  1  0.96571000  0.01724900  0.12505500  1
  C  584  1  0.93343800  0.02495300  0.12077700  1
  C  589  1  0.95626400  0.96887500  0.13745500  1
  C  591  1  0.03804300  0.05646200  0.13890500  1
  C  593  1  0.97072200  0.03344900  0.35201300  1
  C  595  1  0.01571500  0.01646900  0.32935200  1
  C  596  1  0.01627400  0.99156600  0.34247600  1
  C  598  1  0.97169700  0.00879400  0.36598400  1
  C  600  1  0.95072100  0.00240700  0.38520600  1
  C  605  1  0.94641000  0.05334300  0.35295600  1
  C  607  1  0.03510600  0.96933200  0.33511200  1
  C  609  1  0.51502800  0.53550300  0.84605600  1
  C  611  1  0.46165700  0.51809300  0.84066700  1
  C  612  1  0.47211200  0.49078200  0.84437400  1
  C  614  1  0.52583200  0.50812300  0.85043800  1
  C  616  1  0.55821100  0.50056000  0.85445000  1
  C  621  1  0.53477700  0.55661300  0.83821100  1
  C  623  1  0.45364200  0.46857400  0.83690200  1
  C  625  1  0.52043900  0.49146100  0.62071300  1
  C  627  1  0.47515200  0.50869100  0.64290300  1
  C  628  1  0.47534700  0.53377400  0.63005500  1
  C  630  1  0.52023200  0.51631400  0.60700900  1
  C  632  1  0.54182300  0.52270900  0.58818500  1
  C  637  1  0.54448100  0.47130700  0.61996300  1
  C  639  1  0.45674200  0.55614600  0.63742200  1
  C  641  1  0.47668300  0.48951300  0.12866700  1
  C  643  1  0.53008400  0.50672300  0.13439300  1
  C  644  1  0.51985600  0.53405100  0.13043500  1
  C  646  1  0.46611400  0.51690600  0.12403900  1
  C  648  1  0.43383800  0.52457900  0.11971300  1
  C  653  1  0.45670700  0.46852300  0.13643600  1
  C  655  1  0.53841100  0.55623200  0.13786200  1
  C  657  1  0.47116800  0.53383500  0.35300200  1
  C  659  1  0.51606700  0.51665000  0.33034100  1
  C  660  1  0.51643900  0.49172200  0.34342900  1
  C  662  1  0.47194500  0.50914300  0.36692600  1
  C  664  1  0.45090000  0.50282100  0.38611900  1
  C  669  1  0.44701500  0.55387600  0.35397200  1
  C  671  1  0.53515900  0.46941500  0.33606000  1
  C  673  1  0.77671400  0.77450200  0.85636400  1
  C  675  1  0.72018400  0.77481800  0.84739500  1
  C  676  1  0.71716000  0.74667700  0.85336800  1
  C  678  1  0.77374300  0.74609600  0.86255700  1
  C  680  1  0.79821400  0.72931900  0.87246300  1
  C  685  1  0.80522300  0.78952000  0.85895400  1
  C  687  1  0.68750300  0.73400100  0.85641600  1
  C  689  1  0.21440500  0.24984600  0.85650700  1
  C  691  1  0.27083300  0.24930800  0.84765300  1
  C  692  1  0.27396200  0.27755100  0.85323700  1
  C  694  1  0.21748000  0.27835200  0.86231900  1
  C  696  1  0.19312800  0.29532000  0.87194400  1
  C  701  1  0.18588400  0.23492600  0.85918200  1
  C  703  1  0.30368000  0.29021800  0.85624400  1
  C  705  1  0.77709200  0.24959200  0.61774300  1
  C  707  1  0.72069200  0.24919100  0.62661100  1
  C  708  1  0.71732500  0.27746400  0.62112700  1
  C  710  1  0.77378200  0.27813800  0.61205700  1
  C  712  1  0.79798300  0.29506100  0.60251100  1
  C  717  1  0.80567400  0.23453600  0.61494200  1
  C  719  1  0.68752200  0.29023700  0.61815300  1
  C  721  1  0.21449300  0.77427800  0.61799400  1
  C  723  1  0.27113300  0.77473600  0.62642600  1
  C  724  1  0.27442600  0.74651200  0.62075100  1
  C  726  1  0.21772800  0.74578300  0.61212600  1
  C  728  1  0.19330600  0.72888700  0.60267000  1
  C  733  1  0.18580800  0.78929300  0.61541400  1
  C  735  1  0.30418100  0.73378600  0.61756900  1
  C  737  1  0.21439400  0.25114800  0.11597600  1
  C  739  1  0.27083700  0.25022000  0.12528600  1
  C  740  1  0.27446700  0.27818700  0.11890300  1
  C  742  1  0.21801400  0.27933600  0.10923600  1
  C  744  1  0.19398900  0.29620200  0.09881800  1
  C  749  1  0.18552400  0.23656300  0.11369400  1
  C  751  1  0.30439500  0.29045600  0.11601700  1
  C  753  1  0.77720300  0.77513000  0.11584200  1
  C  755  1  0.72097100  0.77595600  0.12539100  1
  C  756  1  0.71731700  0.74794000  0.11916300  1
  C  758  1  0.77355200  0.74690000  0.10922300  1
  C  760  1  0.79741600  0.73005900  0.09875300  1
  C  765  1  0.80600100  0.78973700  0.11347700  1
  C  767  1  0.68737800  0.73559800  0.11635900  1
  C  769  1  0.21406200  0.77521500  0.35820700  1
  C  771  1  0.27034900  0.77625200  0.34896400  1
  C  772  1  0.27433800  0.74814400  0.35485500  1
  C  774  1  0.21803900  0.74687500  0.36444400  1
  C  776  1  0.19430800  0.72984500  0.37451700  1
  C  781  1  0.18512200  0.78983900  0.36071200  1
  C  783  1  0.30441000  0.73578800  0.35765500  1
  C  785  1  0.77715700  0.25116800  0.35795700  1
  C  787  1  0.72070100  0.25040000  0.34881400  1
  C  788  1  0.71688100  0.27838800  0.35516200  1
  C  790  1  0.77334500  0.27937200  0.36467300  1
  C  792  1  0.79727900  0.29613900  0.37501100  1
  C  797  1  0.80612400  0.23647800  0.36019900  1
  C  799  1  0.68689800  0.29077900  0.35814100  1
  C  801  1  0.02122300  0.86118900  0.71962400  1
  C  803  1  0.97399300  0.84099100  0.73617900  1
  C  804  1  0.97720700  0.85670800  0.75747600  1
  C  806  1  0.02480700  0.87731900  0.74089400  1
  C  808  1  0.04878600  0.89717200  0.74550100  1
  C  813  1  0.04198000  0.86225500  0.70037500  1
  C  815  1  0.95520000  0.85637500  0.77618600  1
  C  817  1  0.97035600  0.16492900  0.71910900  1
  C  819  1  0.01975200  0.18206400  0.73509100  1
  C  820  1  0.01465500  0.16833900  0.75718100  1
  C  822  1  0.96480900  0.15085600  0.74120500  1
  C  824  1  0.93855000  0.13362300  0.74657300  1
  C  829  1  0.94986700  0.16406200  0.69953800  1
  C  831  1  0.03673500  0.16803400  0.77600400  1
  C  833  1  0.97036500  0.16548300  0.25466800  1
  C  835  1  0.01923900  0.18361100  0.23898400  1
  C  836  1  0.01491500  0.16918700  0.21709700  1
  C  838  1  0.96559300  0.15072900  0.23276100  1
  C  840  1  0.94001500  0.13269900  0.22733200  1
  C  845  1  0.94958900  0.16462400  0.27392000  1
  C  847  1  0.03711500  0.16907700  0.19851600  1
  C  849  1  0.02104500  0.86000500  0.25484500  1
  C  851  1  0.97134000  0.84314400  0.23917000  1
  C  852  1  0.97627500  0.85686700  0.21705600  1
  C  854  1  0.02644300  0.87404900  0.23271200  1
  C  856  1  0.05278600  0.89111200  0.22716600  1
  C  861  1  0.04170200  0.86080800  0.27432300  1
  C  863  1  0.95400100  0.85728800  0.19836200  1
  C  865  1  0.52085900  0.36082900  0.71934900  1
  C  867  1  0.47283000  0.34188300  0.73573400  1
  C  868  1  0.47701900  0.35684000  0.75735700  1
  C  870  1  0.52545800  0.37616600  0.74096300  1
  C  872  1  0.55049400  0.39493000  0.74587100  1
  C  877  1  0.54141700  0.36167500  0.69997000  1
  C  879  1  0.45516500  0.35672400  0.77616800  1
  C  881  1  0.47075500  0.66418900  0.71898000  1
  C  883  1  0.51986100  0.68156500  0.73526600  1
  C  884  1  0.51480200  0.66755200  0.75722100  1
  C  886  1  0.46525300  0.64981600  0.74093400  1
  C  888  1  0.43915600  0.63231400  0.74607400  1
  C  893  1  0.45034800  0.66343700  0.69936100  1
  C  895  1  0.53672000  0.66731800  0.77614800  1
  C  897  1  0.47055400  0.66459300  0.25460400  1
  C  899  1  0.51879400  0.68344300  0.23847400  1
  C  900  1  0.51483700  0.66841400  0.21686600  1
  C  902  1  0.46617400  0.64920400  0.23299400  1
  C  904  1  0.44114600  0.63047400  0.22795400  1
  C  909  1  0.44982000  0.66378500  0.27388400  1
  C  911  1  0.53687600  0.66846700  0.19817600  1
  C  913  1  0.52090700  0.36055600  0.25509100  1
  C  915  1  0.47121200  0.34380800  0.23930400  1
  C  916  1  0.47639100  0.35734800  0.21713700  1
  C  918  1  0.52655200  0.37441800  0.23290600  1
  C  920  1  0.55305500  0.39130200  0.22737000  1
  C  925  1  0.54146300  0.36131700  0.27462900  1
  C  927  1  0.45428300  0.35766900  0.19833100  1
  C  929  1  0.59204300  0.86442300  0.85746900  1
  C  930  1  0.59969600  0.86104300  0.88233600  1
  C  931  1  0.58083700  0.84516200  0.89790000  1
  C  932  1  0.55505300  0.83052400  0.88819700  1
  C  933  1  0.54768000  0.83089000  0.86325200  1
  C  934  1  0.56536200  0.84907000  0.84792000  1
  C  937  1  0.61334400  0.88210000  0.84374300  1
  C  938  1  0.62302400  0.90915000  0.85158100  1
  C  939  1  0.64891300  0.92293400  0.84000100  1
  C  940  1  0.66386500  0.90996400  0.82024500  1
  C  941  1  0.65385800  0.88438300  0.81139700  1
  C  942  1  0.62933700  0.87036200  0.82358500  1
  C  955  1  0.82548900  0.16036900  0.85819500  1
  C  956  1  0.81786100  0.16419800  0.88295200  1
  C  957  1  0.83690800  0.18013100  0.89850400  1
  C  958  1  0.86280300  0.19447000  0.88882500  1
  C  959  1  0.87007900  0.19374400  0.86392900  1
  C  960  1  0.85228800  0.17540700  0.84867900  1
  C  963  1  0.80393900  0.14274700  0.84446800  1
  C  964  1  0.79375800  0.11596000  0.85253900  1
  C  965  1  0.76766000  0.10233800  0.84085800  1
  C  966  1  0.75300700  0.11520400  0.82079500  1
  C  967  1  0.76354500  0.14047000  0.81171200  1
  C  968  1  0.78826500  0.15435300  0.82398800  1
  C  981  1  0.59318500  0.15969700  0.61592000  1
  C  982  1  0.60043500  0.16304700  0.59106000  1
  C  983  1  0.58110200  0.17891500  0.57549600  1
  C  984  1  0.55524100  0.19354200  0.58521100  1
  C  985  1  0.54823500  0.19308500  0.61015300  1
  C  986  1  0.56642800  0.17498100  0.62550400  1
  C  989  1  0.61512400  0.14231200  0.62967700  1
  C  990  1  0.62504400  0.11520800  0.62204900  1
  C  991  1  0.65153900  0.10176800  0.63358900  1
  C  992  1  0.66701600  0.11514800  0.65294600  1
  C  993  1  0.65656700  0.14068000  0.66173500  1
  C  994  1  0.63128700  0.15433600  0.64966000  1
  C  1007  1  0.82482700  0.86391500  0.61685300  1
  C  1008  1  0.81729400  0.86071900  0.59195700  1
  C  1009  1  0.83651600  0.84503700  0.57633800  1
  C  1010  1  0.86258700  0.83047600  0.58602100  1
  C  1011  1  0.86981000  0.83069300  0.61099200  1
  C  1012  1  0.85167800  0.84858400  0.62643000  1
  C  1015  1  0.80334800  0.88161600  0.63054300  1
  C  1016  1  0.79416000  0.90896700  0.62295700  1
  C  1017  1  0.76745800  0.92254800  0.63400000  1
  C  1018  1  0.75153000  0.90917900  0.65297700  1
  C  1019  1  0.76138000  0.88343500  0.66178300  1
  C  1020  1  0.78664700  0.86957100  0.65011000  1
  C  1033  1  0.82559700  0.16108100  0.11648200  1
  C  1034  1  0.81726300  0.16434900  0.09173700  1
  C  1035  1  0.83535000  0.18030400  0.07576600  1
  C  1036  1  0.86039800  0.19618100  0.08534600  1
  C  1037  1  0.86896300  0.19541300  0.11008200  1
  C  1038  1  0.85234000  0.17667400  0.12557700  1
  C  1041  1  0.80481600  0.14329300  0.13056200  1
  C  1042  1  0.79505100  0.11622400  0.12284600  1
  C  1043  1  0.76935800  0.10242800  0.13466000  1
  C  1044  1  0.75465700  0.11543600  0.15450800  1
  C  1045  1  0.76477200  0.14103000  0.16326000  1
  C  1046  1  0.78915700  0.15502400  0.15087900  1
  C  1059  1  0.59268700  0.86512400  0.11573000  1
  C  1060  1  0.60093800  0.86148900  0.09107700  1
  C  1061  1  0.58264700  0.84547400  0.07513100  1
  C  1062  1  0.55756500  0.82979800  0.08471500  1
  C  1063  1  0.54920000  0.83083600  0.10941500  1
  C  1064  1  0.56591500  0.84974400  0.12481800  1
  C  1067  1  0.61370400  0.88287800  0.12980200  1
  C  1068  1  0.62385600  0.90973300  0.12189300  1
  C  1069  1  0.64972600  0.92341200  0.13380700  1
  C  1070  1  0.66418400  0.91051500  0.15393600  1
  C  1071  1  0.65365900  0.88517300  0.16286700  1
  C  1072  1  0.62912700  0.87126500  0.15039100  1
  C  1085  1  0.82450900  0.86529600  0.35849000  1
  C  1086  1  0.81656000  0.86201500  0.38322400  1
  C  1087  1  0.83507900  0.84599900  0.39916800  1
  C  1088  1  0.86027700  0.83020100  0.38956800  1
  C  1089  1  0.86846000  0.83108500  0.36483300  1
  C  1090  1  0.85132500  0.84977300  0.34933900  1
  C  1093  1  0.80311100  0.88283600  0.34440000  1
  C  1094  1  0.79316200  0.90996300  0.35194400  1
  C  1095  1  0.76690400  0.92347900  0.34016900  1
  C  1096  1  0.75166900  0.91012700  0.32068900  1
  C  1097  1  0.76214700  0.88456500  0.31199100  1
  C  1098  1  0.78725700  0.87087000  0.32424100  1
  C  1111  1  0.59341900  0.16105200  0.35746000  1
  C  1112  1  0.60162000  0.16408200  0.38224400  1
  C  1113  1  0.58317600  0.17984400  0.39827500  1
  C  1114  1  0.55790100  0.19574500  0.38872200  1
  C  1115  1  0.54954100  0.19518500  0.36394500  1
  C  1116  1  0.56655600  0.17669200  0.34833500  1
  C  1119  1  0.61435700  0.14324200  0.34339600  1
  C  1120  1  0.62359600  0.11585400  0.35083900  1
  C  1121  1  0.65005900  0.10224900  0.33950400  1
  C  1122  1  0.66568900  0.11563100  0.32039000  1
  C  1123  1  0.65580900  0.14143600  0.31174300  1
  C  1124  1  0.63073700  0.15529600  0.32366800  1
  C  1137  1  0.09298800  0.36362700  0.85773500  1
  C  1138  1  0.10051700  0.35947200  0.88253200  1
  C  1139  1  0.08155700  0.34311500  0.89767400  1
  C  1140  1  0.05576900  0.32880900  0.88753200  1
  C  1141  1  0.04831300  0.33026200  0.86263900  1
  C  1142  1  0.06611200  0.34887500  0.84781000  1
  C  1145  1  0.11443700  0.38146900  0.84432400  1
  C  1146  1  0.12421300  0.40837400  0.85245400  1
  C  1147  1  0.14991700  0.42236900  0.84082700  1
  C  1148  1  0.16469500  0.40969400  0.82084700  1
  C  1149  1  0.15465000  0.38422500  0.81177900  1
  C  1150  1  0.13023700  0.37004000  0.82394300  1
  C  1163  1  0.32508000  0.66067600  0.85839300  1
  C  1164  1  0.31760000  0.66519600  0.88308600  1
  C  1165  1  0.33669100  0.68164500  0.89821700  1
  C  1166  1  0.36248500  0.69577500  0.88809700  1
  C  1167  1  0.36979500  0.69404600  0.86325200  1
  C  1168  1  0.35197000  0.67523400  0.84850400  1
  C  1171  1  0.30342900  0.64286100  0.84497200  1
  C  1172  1  0.29326200  0.61618100  0.85330000  1
  C  1173  1  0.26737900  0.60230100  0.84157600  1
  C  1174  1  0.25283200  0.61486600  0.82131800  1
  C  1175  1  0.26330000  0.64007200  0.81206200  1
  C  1176  1  0.28787300  0.65416400  0.82431400  1
  C  1189  1  0.09411800  0.66045200  0.61560200  1
  C  1190  1  0.10124200  0.66458800  0.59081400  1
  C  1191  1  0.08180700  0.68092800  0.57567300  1
  C  1192  1  0.05594200  0.69520700  0.58582200  1
  C  1193  1  0.04887800  0.69367400  0.61071500  1
  C  1194  1  0.06718600  0.67514000  0.62556600  1
  C  1197  1  0.11618000  0.64286600  0.62902600  1
  C  1198  1  0.12613000  0.61590100  0.62107700  1
  C  1199  1  0.15244700  0.60220900  0.63263100  1
  C  1200  1  0.16780400  0.61526300  0.65222100  1
  C  1201  1  0.15736700  0.64068800  0.66124800  1
  C  1202  1  0.13220100  0.65455200  0.64923100  1
  C  1215  1  0.32435100  0.36359400  0.61669400  1
  C  1216  1  0.31694300  0.35966700  0.59185900  1
  C  1217  1  0.33622400  0.34348900  0.57664000  1
  C  1218  1  0.36223500  0.32917100  0.58674800  1
  C  1219  1  0.36951600  0.33041500  0.61167500  1
  C  1220  1  0.35134100  0.34878100  0.62663200  1
  C  1223  1  0.30272500  0.38143400  0.63009800  1
  C  1224  1  0.29338100  0.40864400  0.62224500  1
  C  1225  1  0.26687300  0.42238600  0.63340500  1
  C  1226  1  0.25118400  0.40926600  0.65263400  1
  C  1227  1  0.26109700  0.38361400  0.66160100  1
  C  1228  1  0.28625400  0.36963900  0.64989600  1
  C  1241  1  0.32528200  0.66136300  0.11620500  1
  C  1242  1  0.31716600  0.66530900  0.09149800  1
  C  1243  1  0.33540400  0.68170900  0.07594700  1
  C  1244  1  0.36042500  0.69729700  0.08599500  1
  C  1245  1  0.36891800  0.69559100  0.11070200  1
  C  1246  1  0.35213600  0.67646400  0.12570400  1
  C  1249  1  0.30433500  0.64340300  0.12995600  1
  C  1250  1  0.29458200  0.61643500  0.12198100  1
  C  1251  1  0.26908700  0.60239300  0.13382500  1
  C  1252  1  0.25448300  0.61511300  0.15385900  1
  C  1253  1  0.26450800  0.64066000  0.16277500  1
  C  1254  1  0.28876000  0.65485400  0.15043100  1
  C  1267  1  0.09354700  0.36436100  0.11547800  1
  C  1268  1  0.10167400  0.35997900  0.09089800  1
  C  1269  1  0.08324100  0.34355000  0.07535000  1
  C  1270  1  0.05807200  0.32826600  0.08534800  1
  C  1271  1  0.04969500  0.33028200  0.10999300  1
  C  1272  1  0.06657800  0.34955500  0.12491700  1
  C  1275  1  0.11471600  0.38228200  0.12924400  1
  C  1276  1  0.12494900  0.40899400  0.12104300  1
  C  1277  1  0.15062600  0.42290400  0.13299900  1
  C  1278  1  0.16491400  0.41031300  0.15334900  1
  C  1279  1  0.15437000  0.38507400  0.16248600  1
  C  1280  1  0.12996000  0.37098400  0.15004000  1
  C  1293  1  0.32411400  0.36493900  0.35874700  1
  C  1294  1  0.31638500  0.36100100  0.38344500  1
  C  1295  1  0.33505700  0.34456900  0.39898900  1
  C  1296  1  0.36024500  0.32907500  0.38894500  1
  C  1297  1  0.36834100  0.33085500  0.36424100  1
  C  1298  1  0.35104200  0.34990600  0.34921400  1
  C  1301  1  0.30255900  0.38264200  0.34496900  1
  C  1302  1  0.29262900  0.40967400  0.35275900  1
  C  1303  1  0.26654900  0.42342800  0.34095900  1
  C  1304  1  0.25139200  0.41034300  0.32129400  1
  C  1305  1  0.26180400  0.38483600  0.31242700  1
  C  1306  1  0.28678800  0.37095000  0.32464800  1
  C  1319  1  0.09423100  0.66179500  0.35767100  1
  C  1320  1  0.10229700  0.66558500  0.38239600  1
  C  1321  1  0.08371100  0.68178100  0.39802800  1
  C  1322  1  0.05835900  0.69729800  0.38805200  1
  C  1323  1  0.04999800  0.69575000  0.36331400  1
  C  1324  1  0.06718600  0.67687700  0.34817600  1
  C  1327  1  0.11533600  0.64381500  0.34393700  1
  C  1328  1  0.12463600  0.61655500  0.35168400  1
  C  1329  1  0.15093700  0.60273600  0.34032600  1
  C  1330  1  0.16646000  0.61583900  0.32101200  1
  C  1331  1  0.15657200  0.64154100  0.31214300  1
  C  1332  1  0.13157900  0.65557100  0.32400400  1
  C  1345  1  0.57890500  0.84949600  0.00985500  1
  C  1347  1  0.61893400  0.84088200  0.97983000  1
  C  1348  1  0.59802500  0.85013800  0.96148400  1
  C  1350  1  0.55808700  0.85996900  0.99158100  1
  C  1352  1  0.52700300  0.87104500  0.99503900  1
  C  1357  1  0.56945300  0.84554300  0.03349300  1
  C  1359  1  0.60561900  0.85008900  0.93725000  1
  C  1361  1  0.83891000  0.17586400  0.01053100  1
  C  1363  1  0.79902400  0.18495800  0.98017200  1
  C  1364  1  0.81982200  0.17553800  0.96199100  1
  C  1366  1  0.85959900  0.16522900  0.99241800  1
  C  1368  1  0.89053600  0.15383800  0.99612200  1
  C  1373  1  0.84841900  0.17972600  0.03424900  1
  C  1375  1  0.81221100  0.17565000  0.93769700  1
  C  1377  1  0.57935400  0.17488700  0.46346800  1
  C  1379  1  0.61922800  0.18339000  0.49387700  1
  C  1380  1  0.59833600  0.17428600  0.51203300  1
  C  1382  1  0.55857300  0.16455600  0.48156000  1
  C  1384  1  0.52758200  0.15363100  0.47782900  1
  C  1389  1  0.56990900  0.17889400  0.43974000  1
  C  1391  1  0.60587500  0.17432200  0.53633600  1
  C  1393  1  0.83859600  0.84984300  0.46443900  1
  C  1395  1  0.79860800  0.84129400  0.49440500  1
  C  1396  1  0.81938300  0.85048700  0.51277600  1
  C  1398  1  0.85925300  0.86027600  0.48273200  1
  C  1400  1  0.89022100  0.87127100  0.47929500  1
  C  1405  1  0.84817400  0.84579500  0.44083700  1
  C  1407  1  0.81177700  0.85034100  0.53700300  1
  C  1409  1  0.07928700  0.34636900  0.00995300  1
  C  1411  1  0.11925900  0.33792500  0.97983600  1
  C  1412  1  0.09825100  0.34707200  0.96150200  1
  C  1414  1  0.05837400  0.35675600  0.99169400  1
  C  1416  1  0.02730100  0.36782900  0.99522500  1
  C  1421  1  0.06995000  0.34249200  0.03365100  1
  C  1423  1  0.10593300  0.34731300  0.93726200  1
  C  1425  1  0.33936000  0.67859100  0.01057300  1
  C  1427  1  0.29915600  0.68655000  0.98019800  1
  C  1428  1  0.32032900  0.67786600  0.96197700  1
  C  1430  1  0.36046900  0.66866800  0.99241900  1
  C  1432  1  0.39179500  0.65810000  0.99611300  1
  C  1437  1  0.34865200  0.68250100  0.03435700  1
  C  1439  1  0.31256500  0.67753900  0.93768800  1
  C  1441  1  0.07968500  0.67803300  0.46334700  1
  C  1443  1  0.11952000  0.68634100  0.49384000  1
  C  1444  1  0.09854400  0.67731800  0.51197800  1
  C  1446  1  0.05882400  0.66775600  0.48141600  1
  C  1448  1  0.02784600  0.65682900  0.47761400  1
  C  1453  1  0.07033800  0.68199500  0.43957200  1
  C  1455  1  0.10617500  0.67705600  0.53628600  1
  C  1457  1  0.33894000  0.34712400  0.46440100  1
  C  1459  1  0.29864200  0.33970800  0.49438400  1
  C  1460  1  0.31980100  0.34813400  0.51280100  1
  C  1462  1  0.36002700  0.35681400  0.48274100  1
  C  1464  1  0.39138700  0.36697000  0.47932000  1
  C  1469  1  0.34830100  0.34302500  0.44072900  1
  C  1471  1  0.31204500  0.34841700  0.53702500  1
  C  1473  1  0.72802000  0.03581500  0.84514300  1
  C  1475  1  0.67467500  0.01848700  0.83937700  1
  C  1476  1  0.68498400  0.99118700  0.84335400  1
  C  1478  1  0.73865500  0.00845200  0.84981600  1
  C  1480  1  0.77093800  0.00086700  0.85419900  1
  C  1485  1  0.74793900  0.05681700  0.83731700  1
  C  1487  1  0.66656900  0.96897200  0.83582200  1
  C  1489  1  0.73365600  0.99144900  0.62148000  1
  C  1491  1  0.68905200  0.00870200  0.64441300  1
  C  1492  1  0.68844900  0.03354700  0.63120800  1
  C  1494  1  0.73261700  0.01603800  0.60742100  1
  C  1496  1  0.75336900  0.02224700  0.58801400  1
  C  1501  1  0.75787700  0.97148200  0.62043800  1
  C  1503  1  0.66980500  0.05587700  0.63862400  1
  C  1505  1  0.68963200  0.98984000  0.12964500  1
  C  1507  1  0.74307900  0.00698000  0.13530900  1
  C  1508  1  0.73287400  0.03432200  0.13140200  1
  C  1510  1  0.67909600  0.01724900  0.12505500  1
  C  1512  1  0.64682400  0.02495300  0.12077700  1
  C  1517  1  0.66965000  0.96887500  0.13745500  1
  C  1519  1  0.75142900  0.05646200  0.13890500  1
  C  1521  1  0.68410800  0.03344900  0.35201300  1
  C  1523  1  0.72910100  0.01646900  0.32935200  1
  C  1524  1  0.72966000  0.99156600  0.34247600  1
  C  1526  1  0.68508300  0.00879400  0.36598400  1
  C  1528  1  0.66410700  0.00240700  0.38520600  1
  C  1533  1  0.65979600  0.05334300  0.35295600  1
  C  1535  1  0.74849200  0.96933200  0.33511200  1
  C  1537  1  0.22841400  0.53550300  0.84605600  1
  C  1539  1  0.17504300  0.51809300  0.84066700  1
  C  1540  1  0.18549800  0.49078200  0.84437400  1
  C  1542  1  0.23921800  0.50812300  0.85043800  1
  C  1544  1  0.27159700  0.50056000  0.85445000  1
  C  1549  1  0.24816300  0.55661300  0.83821100  1
  C  1551  1  0.16702800  0.46857400  0.83690200  1
  C  1553  1  0.23382500  0.49146100  0.62071300  1
  C  1555  1  0.18853800  0.50869100  0.64290300  1
  C  1556  1  0.18873300  0.53377400  0.63005500  1
  C  1558  1  0.23361800  0.51631400  0.60700900  1
  C  1560  1  0.25520900  0.52270900  0.58818500  1
  C  1565  1  0.25786700  0.47130700  0.61996300  1
  C  1567  1  0.17012800  0.55614600  0.63742200  1
  C  1569  1  0.19006900  0.48951300  0.12866700  1
  C  1571  1  0.24347000  0.50672300  0.13439300  1
  C  1572  1  0.23324200  0.53405100  0.13043500  1
  C  1574  1  0.17950000  0.51690600  0.12403900  1
  C  1576  1  0.14722400  0.52457900  0.11971300  1
  C  1581  1  0.17009300  0.46852300  0.13643600  1
  C  1583  1  0.25179700  0.55623200  0.13786200  1
  C  1585  1  0.18455400  0.53383500  0.35300200  1
  C  1587  1  0.22945300  0.51665000  0.33034100  1
  C  1588  1  0.22982500  0.49172200  0.34342900  1
  C  1590  1  0.18533100  0.50914300  0.36692600  1
  C  1592  1  0.16428600  0.50282100  0.38611900  1
  C  1597  1  0.16040100  0.55387600  0.35397200  1
  C  1599  1  0.24854500  0.46941500  0.33606000  1
  C  1601  1  0.49010000  0.77450200  0.85636400  1
  C  1603  1  0.43357000  0.77481800  0.84739500  1
  C  1604  1  0.43054600  0.74667700  0.85336800  1
  C  1606  1  0.48712900  0.74609600  0.86255700  1
  C  1608  1  0.51160000  0.72931900  0.87246300  1
  C  1613  1  0.51860900  0.78952000  0.85895400  1
  C  1615  1  0.40088900  0.73400100  0.85641600  1
  C  1617  1  0.92779130  0.24984600  0.85650700  1
  C  1619  1  0.98421930  0.24930800  0.84765300  1
  C  1620  1  0.98734830  0.27755100  0.85323700  1
  C  1622  1  0.93086630  0.27835200  0.86231900  1
  C  1624  1  0.90651430  0.29532000  0.87194400  1
  C  1629  1  0.89927000  0.23492600  0.85918200  1
  C  1631  1  0.01706600  0.29021800  0.85624400  1
  C  1633  1  0.49047800  0.24959200  0.61774300  1
  C  1635  1  0.43407800  0.24919100  0.62661100  1
  C  1636  1  0.43071100  0.27746400  0.62112700  1
  C  1638  1  0.48716800  0.27813800  0.61205700  1
  C  1640  1  0.51136900  0.29506100  0.60251100  1
  C  1645  1  0.51906000  0.23453600  0.61494200  1
  C  1647  1  0.40090800  0.29023700  0.61815300  1
  C  1649  1  0.92787930  0.77427800  0.61799400  1
  C  1651  1  0.98451930  0.77473600  0.62642600  1
  C  1652  1  0.98781230  0.74651200  0.62075100  1
  C  1654  1  0.93111430  0.74578300  0.61212600  1
  C  1656  1  0.90669230  0.72888700  0.60267000  1
  C  1661  1  0.89919400  0.78929300  0.61541400  1
  C  1663  1  0.01756700  0.73378600  0.61756900  1
  C  1665  1  0.92778030  0.25114800  0.11597600  1
  C  1667  1  0.98422330  0.25022000  0.12528600  1
  C  1668  1  0.98785330  0.27818700  0.11890300  1
  C  1670  1  0.93140030  0.27933600  0.10923600  1
  C  1672  1  0.90737530  0.29620200  0.09881800  1
  C  1677  1  0.89891000  0.23656300  0.11369400  1
  C  1679  1  0.01778100  0.29045600  0.11601700  1
  C  1681  1  0.49058900  0.77513000  0.11584200  1
  C  1683  1  0.43435700  0.77595600  0.12539100  1
  C  1684  1  0.43070300  0.74794000  0.11916300  1
  C  1686  1  0.48693800  0.74690000  0.10922300  1
  C  1688  1  0.51080200  0.73005900  0.09875300  1
  C  1693  1  0.51938700  0.78973700  0.11347700  1
  C  1695  1  0.40076400  0.73559800  0.11635900  1
  C  1697  1  0.92744830  0.77521500  0.35820700  1
  C  1699  1  0.98373530  0.77625200  0.34896400  1
  C  1700  1  0.98772430  0.74814400  0.35485500  1
  C  1702  1  0.93142530  0.74687500  0.36444400  1
  C  1704  1  0.90769430  0.72984500  0.37451700  1
  C  1709  1  0.89850800  0.78983900  0.36071200  1
  C  1711  1  0.01779600  0.73578800  0.35765500  1
  C  1713  1  0.49054300  0.25116800  0.35795700  1
  C  1715  1  0.43408700  0.25040000  0.34881400  1
  C  1716  1  0.43026700  0.27838800  0.35516200  1
  C  1718  1  0.48673100  0.27937200  0.36467300  1
  C  1720  1  0.51066500  0.29613900  0.37501100  1
  C  1725  1  0.51951000  0.23647800  0.36019900  1
  C  1727  1  0.40028400  0.29077900  0.35814100  1
  C  1729  1  0.73460900  0.86118900  0.71962400  1
  C  1731  1  0.68737900  0.84099100  0.73617900  1
  C  1732  1  0.69059300  0.85670800  0.75747600  1
  C  1734  1  0.73819300  0.87731900  0.74089400  1
  C  1736  1  0.76217200  0.89717200  0.74550100  1
  C  1741  1  0.75536600  0.86225500  0.70037500  1
  C  1743  1  0.66858600  0.85637500  0.77618600  1
  C  1745  1  0.68374200  0.16492900  0.71910900  1
  C  1747  1  0.73313800  0.18206400  0.73509100  1
  C  1748  1  0.72804100  0.16833900  0.75718100  1
  C  1750  1  0.67819500  0.15085600  0.74120500  1
  C  1752  1  0.65193600  0.13362300  0.74657300  1
  C  1757  1  0.66325300  0.16406200  0.69953800  1
  C  1759  1  0.75012100  0.16803400  0.77600400  1
  C  1761  1  0.68375100  0.16548300  0.25466800  1
  C  1763  1  0.73262500  0.18361100  0.23898400  1
  C  1764  1  0.72830100  0.16918700  0.21709700  1
  C  1766  1  0.67897900  0.15072900  0.23276100  1
  C  1768  1  0.65340100  0.13269900  0.22733200  1
  C  1773  1  0.66297500  0.16462400  0.27392000  1
  C  1775  1  0.75050100  0.16907700  0.19851600  1
  C  1777  1  0.73443100  0.86000500  0.25484500  1
  C  1779  1  0.68472600  0.84314400  0.23917000  1
  C  1780  1  0.68966100  0.85686700  0.21705600  1
  C  1782  1  0.73982900  0.87404900  0.23271200  1
  C  1784  1  0.76617200  0.89111200  0.22716600  1
  C  1789  1  0.75508800  0.86080800  0.27432300  1
  C  1791  1  0.66738700  0.85728800  0.19836200  1
  C  1793  1  0.23424500  0.36082900  0.71934900  1
  C  1795  1  0.18621600  0.34188300  0.73573400  1
  C  1796  1  0.19040500  0.35684000  0.75735700  1
  C  1798  1  0.23884400  0.37616600  0.74096300  1
  C  1800  1  0.26388000  0.39493000  0.74587100  1
  C  1805  1  0.25480300  0.36167500  0.69997000  1
  C  1807  1  0.16855100  0.35672400  0.77616800  1
  C  1809  1  0.18414100  0.66418900  0.71898000  1
  C  1811  1  0.23324700  0.68156500  0.73526600  1
  C  1812  1  0.22818800  0.66755200  0.75722100  1
  C  1814  1  0.17863900  0.64981600  0.74093400  1
  C  1816  1  0.15254200  0.63231400  0.74607400  1
  C  1821  1  0.16373400  0.66343700  0.69936100  1
  C  1823  1  0.25010600  0.66731800  0.77614800  1
  C  1825  1  0.18394000  0.66459300  0.25460400  1
  C  1827  1  0.23218000  0.68344300  0.23847400  1
  C  1828  1  0.22822300  0.66841400  0.21686600  1
  C  1830  1  0.17956000  0.64920400  0.23299400  1
  C  1832  1  0.15453200  0.63047400  0.22795400  1
  C  1837  1  0.16320600  0.66378500  0.27388400  1
  C  1839  1  0.25026200  0.66846700  0.19817600  1
  C  1841  1  0.23429300  0.36055600  0.25509100  1
  C  1843  1  0.18459800  0.34380800  0.23930400  1
  C  1844  1  0.18977700  0.35734800  0.21713700  1
  C  1846  1  0.23993800  0.37441800  0.23290600  1
  C  1848  1  0.26644100  0.39130200  0.22737000  1
  C  1853  1  0.25484900  0.36131700  0.27462900  1
  C  1855  1  0.16766900  0.35766900  0.19833100  1
  N  17  1  0.84240500  0.85204500  0.82450400  1
  N  18  1  0.89383200  0.92261100  0.86956100  1
  N  23  1  0.95613000  0.87553000  0.79211400  1
  N  24  1  0.94905500  0.94653300  0.84791800  1
  N  25  1  0.80832500  0.81591600  0.85673600  1
  N  26  1  0.86986200  0.84578500  0.92177700  1
  N  43  1  0.14850500  0.17196200  0.82540000  1
  N  44  1  0.09584400  0.10264600  0.87089300  1
  N  49  1  0.03457700  0.14936300  0.79228000  1
  N  50  1  0.04001200  0.07927800  0.84910500  1
  N  51  1  0.18273000  0.20849200  0.85741600  1
  N  52  1  0.12123000  0.17967500  0.92237500  1
  N  69  1  0.84391000  0.17200500  0.64893500  1
  N  70  1  0.89564800  0.10149200  0.60428500  1
  N  75  1  0.95846700  0.14960600  0.68128700  1
  N  76  1  0.95152900  0.07792600  0.62604100  1
  N  77  1  0.80888700  0.20809200  0.61676500  1
  N  78  1  0.87000600  0.17842300  0.55162900  1
  N  95  1  0.14752300  0.85129500  0.64993600  1
  N  96  1  0.09736500  0.92202900  0.60527900  1
  N  101  1  0.03241800  0.87459900  0.68113400  1
  N  102  1  0.04079700  0.94716900  0.62912500  1
  N  103  1  0.18252700  0.81570300  0.61752200  1
  N  104  1  0.12079200  0.84584300  0.55246300  1
  N  121  1  0.14940700  0.17351000  0.14876000  1
  N  122  1  0.09719200  0.10278500  0.10471200  1
  N  127  1  0.03570900  0.15005200  0.18248700  1
  N  128  1  0.04227900  0.07887700  0.12679600  1
  N  129  1  0.18185500  0.21025400  0.11616900  1
  N  130  1  0.11557500  0.17836200  0.05214200  1
  N  147  1  0.84211000  0.85328900  0.14788000  1
  N  148  1  0.89519900  0.92303100  0.10343200  1
  N  153  1  0.95592400  0.87612200  0.18221400  1
  N  154  1  0.95069800  0.94646100  0.12562800  1
  N  155  1  0.80956600  0.81610400  0.11551800  1
  N  156  1  0.87550000  0.84728700  0.05153300  1
  N  173  1  0.14795700  0.85296900  0.32614500  1
  N  174  1  0.09552000  0.92360000  0.36988900  1
  N  179  1  0.03345900  0.87558100  0.29246900  1
  N  180  1  0.03999800  0.94727400  0.34768400  1
  N  181  1  0.18134100  0.81620700  0.35863000  1
  N  182  1  0.11544400  0.84785800  0.42276000  1
  N  199  1  0.84305000  0.17382100  0.32505100  1
  N  200  1  0.89393200  0.10280700  0.36869400  1
  N  205  1  0.95799200  0.15037200  0.29242200  1
  N  206  1  0.95012200  0.07769200  0.34435300  1
  N  207  1  0.80981600  0.21013600  0.35784100  1
  N  208  1  0.87608900  0.17768700  0.42189700  1
  N  225  1  0.34307200  0.35287500  0.82452100  1
  N  226  1  0.39526000  0.42150700  0.87073300  1
  N  231  1  0.45677700  0.37558100  0.79234200  1
  N  232  1  0.45004300  0.44593900  0.84882000  1
  N  233  1  0.30830800  0.31652800  0.85575100  1
  N  234  1  0.37032500  0.34322600  0.92160300  1
  N  251  1  0.64824700  0.67084200  0.82535100  1
  N  252  1  0.59518100  0.60320100  0.87191400  1
  N  257  1  0.53444700  0.64873200  0.79249500  1
  N  258  1  0.53985400  0.57921600  0.84988800  1
  N  259  1  0.68299800  0.70767300  0.85638500  1
  N  260  1  0.62130000  0.68168300  0.92213800  1
  N  277  1  0.34460900  0.67114100  0.64887100  1
  N  278  1  0.39690900  0.60253900  0.60301700  1
  N  283  1  0.45915300  0.64934100  0.68094700  1
  N  284  1  0.45235900  0.57837800  0.62498500  1
  N  285  1  0.30889900  0.70744700  0.61769400  1
  N  286  1  0.37045400  0.68094400  0.55175800  1
  N  303  1  0.64728000  0.35247700  0.65002100  1
  N  304  1  0.59622300  0.42143600  0.60422500  1
  N  309  1  0.53230800  0.37497400  0.68110500  1
  N  310  1  0.54020500  0.44697500  0.62844000  1
  N  311  1  0.68281500  0.31657400  0.61857400  1
  N  312  1  0.62077100  0.34379800  0.55271000  1
  N  329  1  0.64916900  0.67241900  0.14880000  1
  N  330  1  0.59657600  0.60330700  0.10360800  1
  N  335  1  0.53554600  0.64944800  0.18213200  1
  N  336  1  0.54209400  0.57883200  0.12590300  1
  N  337  1  0.68232300  0.70936100  0.11718900  1
  N  338  1  0.61591300  0.68014700  0.05223800  1
  N  355  1  0.34273900  0.35403800  0.14785400  1
  N  356  1  0.39652700  0.42195900  0.10229700  1
  N  361  1  0.45647000  0.37628600  0.18200600  1
  N  362  1  0.45156600  0.44593500  0.12475100  1
  N  363  1  0.30948100  0.31669900  0.11645300  1
  N  364  1  0.37591700  0.34491200  0.05167900  1
  N  381  1  0.64763000  0.35395600  0.32610500  1
  N  382  1  0.59486900  0.42301800  0.37093200  1
  N  387  1  0.53319700  0.37605900  0.29279100  1
  N  388  1  0.53976400  0.44724800  0.34854300  1
  N  389  1  0.68173300  0.31705000  0.35766100  1
  N  390  1  0.61570200  0.34607100  0.42266800  1
  N  407  1  0.34366500  0.67306600  0.32499500  1
  N  408  1  0.39517800  0.60381100  0.36981000  1
  N  413  1  0.45864400  0.65024100  0.29268800  1
  N  414  1  0.45087800  0.57815300  0.34525600  1
  N  415  1  0.30969200  0.70954300  0.35682200  1
  N  416  1  0.37644700  0.68007500  0.42172400  1
  N  418  1  0.89497500  0.84042800  0.00299600  1
  N  421  1  0.85540400  0.85933200  0.96846000  1
  N  426  1  0.80569600  0.88762500  0.01372200  1
  N  434  1  0.09620200  0.18525300  0.00343100  1
  N  437  1  0.13553500  0.16602600  0.96920400  1
  N  442  1  0.18486200  0.13718200  0.01486600  1
  N  450  1  0.89532900  0.18383800  0.47060800  1
  N  453  1  0.85581700  0.16520400  0.50478300  1
  N  458  1  0.80647100  0.13699200  0.45913300  1
  N  466  1  0.09584700  0.84082400  0.47125300  1
  N  469  1  0.13513600  0.85963400  0.50584200  1
  N  474  1  0.18463100  0.88774600  0.46056700  1
  N  482  1  0.39538900  0.33743900  0.00303200  1
  N  485  1  0.35561800  0.35617300  0.96854400  1
  N  490  1  0.30607400  0.38443000  0.01391400  1
  N  498  1  0.59628400  0.68707200  0.00347300  1
  N  501  1  0.63639300  0.66920400  0.96919500  1
  N  506  1  0.68666500  0.64149400  0.01476300  1
  N  514  1  0.39569200  0.68684800  0.47054500  1
  N  517  1  0.35601100  0.66832500  0.50466500  1
  N  522  1  0.30680500  0.64020000  0.45889300  1
  N  530  1  0.59582400  0.33902400  0.47121200  1
  N  533  1  0.63590600  0.35641800  0.50586600  1
  N  538  1  0.68635300  0.38339000  0.46069700  1
  N  546  1  0.98309100  0.03909100  0.83964300  1
  N  549  1  0.00338100  0.98773300  0.84795400  1
  N  554  1  0.07846700  0.01668900  0.86656300  1
  N  562  1  0.99815800  0.98933900  0.63936400  1
  N  565  1  0.99726700  0.03580000  0.61342900  1
  N  570  1  0.04982800  0.00355400  0.57151800  1
  N  578  1  0.00779900  0.98644700  0.13506000  1
  N  581  1  0.98769800  0.03789100  0.12689400  1
  N  586  1  0.91237900  0.00922600  0.10845800  1
  N  594  1  0.99306100  0.03572100  0.33430600  1
  N  597  1  0.99384200  0.98914400  0.36007000  1
  N  602  1  0.94056700  0.02097900  0.40169900  1
  N  610  1  0.48339100  0.53875200  0.84087100  1
  N  613  1  0.50397700  0.48737100  0.84865200  1
  N  618  1  0.57938900  0.51638700  0.86655000  1
  N  626  1  0.49761400  0.48923400  0.63806700  1
  N  629  1  0.49826900  0.53615700  0.61282200  1
  N  634  1  0.55214600  0.50423700  0.57166500  1
  N  642  1  0.50822700  0.48616300  0.13412900  1
  N  645  1  0.48807000  0.53757300  0.12587400  1
  N  650  1  0.41276100  0.50877200  0.10749300  1
  N  658  1  0.49354800  0.53601500  0.33531300  1
  N  661  1  0.49396200  0.48938600  0.36100000  1
  N  666  1  0.44089100  0.52140400  0.40265200  1
  N  674  1  0.74919700  0.78731000  0.84913900  1
  N  677  1  0.74444400  0.73402500  0.86096600  1
  N  682  1  0.81354000  0.73580400  0.89325600  1
  N  690  1  0.24182200  0.23688100  0.84950800  1
  N  693  1  0.24678000  0.29036200  0.86061900  1
  N  698  1  0.17786100  0.28914300  0.89270900  1
  N  706  1  0.74981300  0.23667800  0.62469200  1
  N  709  1  0.74437200  0.29023800  0.61380300  1
  N  714  1  0.81321600  0.28898900  0.58167100  1
  N  722  1  0.24192900  0.78720400  0.62479700  1
  N  725  1  0.24721000  0.73372900  0.61357700  1
  N  730  1  0.17767500  0.73498000  0.58187700  1
  N  738  1  0.24158700  0.23812100  0.12360100  1
  N  741  1  0.24752300  0.29103300  0.11085900  1
  N  746  1  0.17844100  0.28923500  0.07824100  1
  N  754  1  0.75013800  0.78812700  0.12353600  1
  N  757  1  0.74412400  0.73513300  0.11103300  1
  N  762  1  0.81274500  0.73709900  0.07823000  1
  N  770  1  0.24099400  0.78836800  0.35083900  1
  N  773  1  0.24765800  0.73515600  0.36264700  1
  N  778  1  0.17887300  0.73639800  0.39516200  1
  N  786  1  0.75006500  0.23820200  0.35043300  1
  N  789  1  0.74372500  0.29117000  0.36311500  1
  N  794  1  0.81299500  0.28912500  0.39554900  1
  N  802  1  0.99589100  0.84382700  0.71829900  1
  N  805  1  0.00260000  0.87400000  0.75848000  1
  N  810  1  0.05975500  0.91508400  0.72884800  1
  N  818  1  0.99765700  0.17979700  0.71711800  1
  N  821  1  0.98731200  0.15349500  0.75886300  1
  N  826  1  0.92540200  0.11566600  0.73079100  1
  N  834  1  0.99705400  0.18118300  0.25670500  1
  N  837  1  0.98815600  0.15355700  0.21535600  1
  N  842  1  0.92740100  0.11471100  0.24322500  1
  N  850  1  0.99365300  0.84528900  0.25700200  1
  N  853  1  0.00371600  0.87154900  0.21520100  1
  N  858  1  0.06624600  0.90901700  0.24283800  1
  N  866  1  0.49467400  0.34445300  0.71779100  1
  N  869  1  0.50326600  0.37314600  0.75861000  1
  N  874  1  0.56232800  0.41281700  0.72954600  1
  N  882  1  0.49788700  0.67931900  0.71720900  1
  N  885  1  0.48762400  0.65245600  0.75868700  1
  N  890  1  0.42624000  0.61447000  0.73008500  1
  N  898  1  0.49674900  0.68094500  0.25628700  1
  N  901  1  0.48857000  0.65214200  0.21548300  1
  N  906  1  0.42912600  0.61260500  0.24421200  1
  N  914  1  0.49341400  0.34597200  0.25721100  1
  N  917  1  0.50393700  0.37189000  0.21531300  1
  N  922  1  0.56662100  0.40916500  0.24302800  1
  N  945  1  0.55579100  0.85204500  0.82450400  1
  N  946  1  0.60721800  0.92261100  0.86956100  1
  N  951  1  0.66951600  0.87553000  0.79211400  1
  N  952  1  0.66244100  0.94653300  0.84791800  1
  N  953  1  0.52171100  0.81591600  0.85673600  1
  N  954  1  0.58324800  0.84578500  0.92177700  1
  N  971  1  0.86189100  0.17196200  0.82540000  1
  N  972  1  0.80923000  0.10264600  0.87089300  1
  N  977  1  0.74796300  0.14936300  0.79228000  1
  N  978  1  0.75339800  0.07927800  0.84910500  1
  N  979  1  0.89611600  0.20849200  0.85741600  1
  N  980  1  0.83461600  0.17967500  0.92237500  1
  N  997  1  0.55729600  0.17200500  0.64893500  1
  N  998  1  0.60903400  0.10149200  0.60428500  1
  N  1003  1  0.67185300  0.14960600  0.68128700  1
  N  1004  1  0.66491500  0.07792600  0.62604100  1
  N  1005  1  0.52227300  0.20809200  0.61676500  1
  N  1006  1  0.58339200  0.17842300  0.55162900  1
  N  1023  1  0.86090900  0.85129500  0.64993600  1
  N  1024  1  0.81075100  0.92202900  0.60527900  1
  N  1029  1  0.74580400  0.87459900  0.68113400  1
  N  1030  1  0.75418300  0.94716900  0.62912500  1
  N  1031  1  0.89591300  0.81570300  0.61752200  1
  N  1032  1  0.83417800  0.84584300  0.55246300  1
  N  1049  1  0.86279300  0.17351000  0.14876000  1
  N  1050  1  0.81057800  0.10278500  0.10471200  1
  N  1055  1  0.74909500  0.15005200  0.18248700  1
  N  1056  1  0.75566500  0.07887700  0.12679600  1
  N  1057  1  0.89524100  0.21025400  0.11616900  1
  N  1058  1  0.82896100  0.17836200  0.05214200  1
  N  1075  1  0.55549600  0.85328900  0.14788000  1
  N  1076  1  0.60858500  0.92303100  0.10343200  1
  N  1081  1  0.66931000  0.87612200  0.18221400  1
  N  1082  1  0.66408400  0.94646100  0.12562800  1
  N  1083  1  0.52295200  0.81610400  0.11551800  1
  N  1084  1  0.58888600  0.84728700  0.05153300  1
  N  1101  1  0.86134300  0.85296900  0.32614500  1
  N  1102  1  0.80890600  0.92360000  0.36988900  1
  N  1107  1  0.74684500  0.87558100  0.29246900  1
  N  1108  1  0.75338400  0.94727400  0.34768400  1
  N  1109  1  0.89472700  0.81620700  0.35863000  1
  N  1110  1  0.82883000  0.84785800  0.42276000  1
  N  1127  1  0.55643600  0.17382100  0.32505100  1
  N  1128  1  0.60731800  0.10280700  0.36869400  1
  N  1133  1  0.67137800  0.15037200  0.29242200  1
  N  1134  1  0.66350800  0.07769200  0.34435300  1
  N  1135  1  0.52320200  0.21013600  0.35784100  1
  N  1136  1  0.58947500  0.17768700  0.42189700  1
  N  1153  1  0.05645800  0.35287500  0.82452100  1
  N  1154  1  0.10864600  0.42150700  0.87073300  1
  N  1159  1  0.17016300  0.37558100  0.79234200  1
  N  1160  1  0.16342900  0.44593900  0.84882000  1
  N  1161  1  0.02169400  0.31652800  0.85575100  1
  N  1162  1  0.08371100  0.34322600  0.92160300  1
  N  1179  1  0.36163300  0.67084200  0.82535100  1
  N  1180  1  0.30856700  0.60320100  0.87191400  1
  N  1185  1  0.24783300  0.64873200  0.79249500  1
  N  1186  1  0.25324000  0.57921600  0.84988800  1
  N  1187  1  0.39638400  0.70767300  0.85638500  1
  N  1188  1  0.33468600  0.68168300  0.92213800  1
  N  1205  1  0.05799500  0.67114100  0.64887100  1
  N  1206  1  0.11029500  0.60253900  0.60301700  1
  N  1211  1  0.17253900  0.64934100  0.68094700  1
  N  1212  1  0.16574500  0.57837800  0.62498500  1
  N  1213  1  0.02228500  0.70744700  0.61769400  1
  N  1214  1  0.08384000  0.68094400  0.55175800  1
  N  1231  1  0.36066600  0.35247700  0.65002100  1
  N  1232  1  0.30960900  0.42143600  0.60422500  1
  N  1237  1  0.24569400  0.37497400  0.68110500  1
  N  1238  1  0.25359100  0.44697500  0.62844000  1
  N  1239  1  0.39620100  0.31657400  0.61857400  1
  N  1240  1  0.33415700  0.34379800  0.55271000  1
  N  1257  1  0.36255500  0.67241900  0.14880000  1
  N  1258  1  0.30996200  0.60330700  0.10360800  1
  N  1263  1  0.24893200  0.64944800  0.18213200  1
  N  1264  1  0.25548000  0.57883200  0.12590300  1
  N  1265  1  0.39570900  0.70936100  0.11718900  1
  N  1266  1  0.32929900  0.68014700  0.05223800  1
  N  1283  1  0.05612500  0.35403800  0.14785400  1
  N  1284  1  0.10991300  0.42195900  0.10229700  1
  N  1289  1  0.16985600  0.37628600  0.18200600  1
  N  1290  1  0.16495200  0.44593500  0.12475100  1
  N  1291  1  0.02286700  0.31669900  0.11645300  1
  N  1292  1  0.08930300  0.34491200  0.05167900  1
  N  1309  1  0.36101600  0.35395600  0.32610500  1
  N  1310  1  0.30825500  0.42301800  0.37093200  1
  N  1315  1  0.24658300  0.37605900  0.29279100  1
  N  1316  1  0.25315000  0.44724800  0.34854300  1
  N  1317  1  0.39511900  0.31705000  0.35766100  1
  N  1318  1  0.32908800  0.34607100  0.42266800  1
  N  1335  1  0.05705100  0.67306600  0.32499500  1
  N  1336  1  0.10856400  0.60381100  0.36981000  1
  N  1341  1  0.17203000  0.65024100  0.29268800  1
  N  1342  1  0.16426400  0.57815300  0.34525600  1
  N  1343  1  0.02307800  0.70954300  0.35682200  1
  N  1344  1  0.08983300  0.68007500  0.42172400  1
  N  1346  1  0.60836100  0.84042800  0.00299600  1
  N  1349  1  0.56879000  0.85933200  0.96846000  1
  N  1354  1  0.51908200  0.88762500  0.01372200  1
  N  1362  1  0.80958800  0.18525300  0.00343100  1
  N  1365  1  0.84892100  0.16602600  0.96920400  1
  N  1370  1  0.89824800  0.13718200  0.01486600  1
  N  1378  1  0.60871500  0.18383800  0.47060800  1
  N  1381  1  0.56920300  0.16520400  0.50478300  1
  N  1386  1  0.51985700  0.13699200  0.45913300  1
  N  1394  1  0.80923300  0.84082400  0.47125300  1
  N  1397  1  0.84852200  0.85963400  0.50584200  1
  N  1402  1  0.89801700  0.88774600  0.46056700  1
  N  1410  1  0.10877500  0.33743900  0.00303200  1
  N  1413  1  0.06900400  0.35617300  0.96854400  1
  N  1418  1  0.01946000  0.38443000  0.01391400  1
  N  1426  1  0.30967000  0.68707200  0.00347300  1
  N  1429  1  0.34977900  0.66920400  0.96919500  1
  N  1434  1  0.40005100  0.64149400  0.01476300  1
  N  1442  1  0.10907800  0.68684800  0.47054500  1
  N  1445  1  0.06939700  0.66832500  0.50466500  1
  N  1450  1  0.02019100  0.64020000  0.45889300  1
  N  1458  1  0.30921000  0.33902400  0.47121200  1
  N  1461  1  0.34929200  0.35641800  0.50586600  1
  N  1466  1  0.39973900  0.38339000  0.46069700  1
  N  1474  1  0.69647700  0.03909100  0.83964300  1
  N  1477  1  0.71676700  0.98773300  0.84795400  1
  N  1482  1  0.79185300  0.01668900  0.86656300  1
  N  1490  1  0.71154400  0.98933900  0.63936400  1
  N  1493  1  0.71065300  0.03580000  0.61342900  1
  N  1498  1  0.76321400  0.00355400  0.57151800  1
  N  1506  1  0.72118500  0.98644700  0.13506000  1
  N  1509  1  0.70108400  0.03789100  0.12689400  1
  N  1514  1  0.62576500  0.00922600  0.10845800  1
  N  1522  1  0.70644700  0.03572100  0.33430600  1
  N  1525  1  0.70722800  0.98914400  0.36007000  1
  N  1530  1  0.65395300  0.02097900  0.40169900  1
  N  1538  1  0.19677700  0.53875200  0.84087100  1
  N  1541  1  0.21736300  0.48737100  0.84865200  1
  N  1546  1  0.29277500  0.51638700  0.86655000  1
  N  1554  1  0.21100000  0.48923400  0.63806700  1
  N  1557  1  0.21165500  0.53615700  0.61282200  1
  N  1562  1  0.26553200  0.50423700  0.57166500  1
  N  1570  1  0.22161300  0.48616300  0.13412900  1
  N  1573  1  0.20145600  0.53757300  0.12587400  1
  N  1578  1  0.12614700  0.50877200  0.10749300  1
  N  1586  1  0.20693400  0.53601500  0.33531300  1
  N  1589  1  0.20734800  0.48938600  0.36100000  1
  N  1594  1  0.15427700  0.52140400  0.40265200  1
  N  1602  1  0.46258300  0.78731000  0.84913900  1
  N  1605  1  0.45783000  0.73402500  0.86096600  1
  N  1610  1  0.52692600  0.73580400  0.89325600  1
  N  1618  1  0.95520830  0.23688100  0.84950800  1
  N  1621  1  0.96016630  0.29036200  0.86061900  1
  N  1626  1  0.89124700  0.28914300  0.89270900  1
  N  1634  1  0.46319900  0.23667800  0.62469200  1
  N  1637  1  0.45775800  0.29023800  0.61380300  1
  N  1642  1  0.52660200  0.28898900  0.58167100  1
  N  1650  1  0.95531530  0.78720400  0.62479700  1
  N  1653  1  0.96059630  0.73372900  0.61357700  1
  N  1658  1  0.89106100  0.73498000  0.58187700  1
  N  1666  1  0.95497330  0.23812100  0.12360100  1
  N  1669  1  0.96090930  0.29103300  0.11085900  1
  N  1674  1  0.89182700  0.28923500  0.07824100  1
  N  1682  1  0.46352400  0.78812700  0.12353600  1
  N  1685  1  0.45751000  0.73513300  0.11103300  1
  N  1690  1  0.52613100  0.73709900  0.07823000  1
  N  1698  1  0.95438030  0.78836800  0.35083900  1
  N  1701  1  0.96104430  0.73515600  0.36264700  1
  N  1706  1  0.89225900  0.73639800  0.39516200  1
  N  1714  1  0.46345100  0.23820200  0.35043300  1
  N  1717  1  0.45711100  0.29117000  0.36311500  1
  N  1722  1  0.52638100  0.28912500  0.39554900  1
  N  1730  1  0.70927700  0.84382700  0.71829900  1
  N  1733  1  0.71598600  0.87400000  0.75848000  1
  N  1738  1  0.77314100  0.91508400  0.72884800  1
  N  1746  1  0.71104300  0.17979700  0.71711800  1
  N  1749  1  0.70069800  0.15349500  0.75886300  1
  N  1754  1  0.63878800  0.11566600  0.73079100  1
  N  1762  1  0.71044000  0.18118300  0.25670500  1
  N  1765  1  0.70154200  0.15355700  0.21535600  1
  N  1770  1  0.64078700  0.11471100  0.24322500  1
  N  1778  1  0.70703900  0.84528900  0.25700200  1
  N  1781  1  0.71710200  0.87154900  0.21520100  1
  N  1786  1  0.77963200  0.90901700  0.24283800  1
  N  1794  1  0.20806000  0.34445300  0.71779100  1
  N  1797  1  0.21665200  0.37314600  0.75861000  1
  N  1802  1  0.27571400  0.41281700  0.72954600  1
  N  1810  1  0.21127300  0.67931900  0.71720900  1
  N  1813  1  0.20101000  0.65245600  0.75868700  1
  N  1818  1  0.13962600  0.61447000  0.73008500  1
  N  1826  1  0.21013500  0.68094500  0.25628700  1
  N  1829  1  0.20195600  0.65214200  0.21548300  1
  N  1834  1  0.14251200  0.61260500  0.24421200  1
  N  1842  1  0.20680000  0.34597200  0.25721100  1
  N  1845  1  0.21732300  0.37189000  0.21531300  1
  N  1850  1  0.28000700  0.40916500  0.24302800  1
  O  425  1  0.79168900  0.86790800  0.97718600  1
  O  441  1  0.19911500  0.15676300  0.97844800  1
  O  457  1  0.79218800  0.15697200  0.49544700  1
  O  473  1  0.19875800  0.86812500  0.49718200  1
  O  489  1  0.29193400  0.36472700  0.97740500  1
  O  505  1  0.70027400  0.66170700  0.97847100  1
  O  521  1  0.29241100  0.66010000  0.49521200  1
  O  537  1  0.69982600  0.36312800  0.49717500  1
  O  553  1  0.06743500  0.97537000  0.84777700  1
  O  569  1  0.04740000  0.04887200  0.58390600  1
  O  585  1  0.92370600  0.05046600  0.12727700  1
  O  601  1  0.94338800  0.97573300  0.38915100  1
  O  617  1  0.56799200  0.47508600  0.84787200  1
  O  633  1  0.54966500  0.54934600  0.58462900  1
  O  649  1  0.42410300  0.55013100  0.12609300  1
  O  665  1  0.44335700  0.47618100  0.39000000  1
  O  681  1  0.80128500  0.70331700  0.86408700  1
  O  697  1  0.19003800  0.32119600  0.86325400  1
  O  713  1  0.80088100  0.32085200  0.61135900  1
  O  729  1  0.19057100  0.70309600  0.61152500  1
  O  745  1  0.19150100  0.32252900  0.10648200  1
  O  761  1  0.80006300  0.70372100  0.10638500  1
  O  777  1  0.19199900  0.70370900  0.36637800  1
  O  793  1  0.79956000  0.32242800  0.36728000  1
  O  809  1  0.05824500  0.90111800  0.76868500  1
  O  825  1  0.92862300  0.13226800  0.76979700  1
  O  841  1  0.93036800  0.13059100  0.20400300  1
  O  857  1  0.06247600  0.89236400  0.20388000  1
  O  873  1  0.56033800  0.39784500  0.76908300  1
  O  889  1  0.42916100  0.63058300  0.76926000  1
  O  905  1  0.43152900  0.62756200  0.20468800  1
  O  921  1  0.56285800  0.39240100  0.20410600  1
  O  1353  1  0.50507500  0.86790800  0.97718600  1
  O  1369  1  0.91250130  0.15676300  0.97844800  1
  O  1385  1  0.50557400  0.15697200  0.49544700  1
  O  1401  1  0.91214430  0.86812500  0.49718200  1
  O  1417  1  0.00532000  0.36472700  0.97740500  1
  O  1433  1  0.41366000  0.66170700  0.97847100  1
  O  1449  1  0.00579700  0.66010000  0.49521200  1
  O  1465  1  0.41321200  0.36312800  0.49717500  1
  O  1481  1  0.78082100  0.97537000  0.84777700  1
  O  1497  1  0.76078600  0.04887200  0.58390600  1
  O  1513  1  0.63709200  0.05046600  0.12727700  1
  O  1529  1  0.65677400  0.97573300  0.38915100  1
  O  1545  1  0.28137800  0.47508600  0.84787200  1
  O  1561  1  0.26305100  0.54934600  0.58462900  1
  O  1577  1  0.13748900  0.55013100  0.12609300  1
  O  1593  1  0.15674300  0.47618100  0.39000000  1
  O  1609  1  0.51467100  0.70331700  0.86408700  1
  O  1625  1  0.90342430  0.32119600  0.86325400  1
  O  1641  1  0.51426700  0.32085200  0.61135900  1
  O  1657  1  0.90395730  0.70309600  0.61152500  1
  O  1673  1  0.90488730  0.32252900  0.10648200  1
  O  1689  1  0.51344900  0.70372100  0.10638500  1
  O  1705  1  0.90538530  0.70370900  0.36637800  1
  O  1721  1  0.51294600  0.32242800  0.36728000  1
  O  1737  1  0.77163100  0.90111800  0.76868500  1
  O  1753  1  0.64200900  0.13226800  0.76979700  1
  O  1769  1  0.64375400  0.13059100  0.20400300  1
  O  1785  1  0.77586200  0.89236400  0.20388000  1
  O  1801  1  0.27372400  0.39784500  0.76908300  1
  O  1817  1  0.14254700  0.63058300  0.76926000  1
  O  1833  1  0.14491500  0.62756200  0.20468800  1
  O  1849  1  0.27624400  0.39240100  0.20410600  1
