# generated using pymatgen
data_H8C12N5O3
_symmetry_space_group_name_H-M   'P 1'
_cell_length_a   22.09490000
_cell_length_b   60.06050000
_cell_length_c   60.06050000
_cell_angle_alpha   90.00000000
_cell_angle_beta   90.00000000
_cell_angle_gamma   90.00000000
_symmetry_Int_Tables_number   1
_chemical_formula_structural   H8C12N5O3
_chemical_formula_sum   'H256 C384 N160 O96'
_cell_volume   79702.12984686
_cell_formula_units_Z   32
loop_
 _symmetry_equiv_pos_site_id
 _symmetry_equiv_pos_as_xyz
  1  'x, y, z'
loop_
 _atom_site_type_symbol
 _atom_site_label
 _atom_site_symmetry_multiplicity
 _atom_site_fract_x
 _atom_site_fract_y
 _atom_site_fract_z
 _atom_site_occupancy
  C  1  1  0.26862700  0.08210900  0.97853800  1
  C  2  1  0.29011500  0.09916000  0.96437800  1
  C  3  1  0.34502700  0.09721000  0.95263300  1
  C  4  1  0.37920500  0.07759600  0.95524700  1
  C  5  1  0.36261200  0.06084000  0.97067000  1
  C  6  1  0.30512400  0.06275400  0.98129100  1
  C  9  1  0.21191100  0.08497300  0.98932400  1
  C  10  1  0.19803500  0.10483600  0.00110800  1
  C  11  1  0.14428200  0.10632300  0.01382800  1
  C  12  1  0.10204900  0.08876900  0.01323200  1
  C  13  1  0.11228800  0.06926100  0.00058200  1
  C  14  1  0.16815400  0.06773000  0.98910300  1
  C  29  1  0.76875400  0.41436600  0.01789000  1
  C  30  1  0.79025400  0.39728800  0.03201900  1
  C  31  1  0.84507200  0.39926600  0.04382100  1
  C  32  1  0.87926800  0.41887600  0.04121300  1
  C  33  1  0.86270200  0.43563600  0.02579500  1
  C  34  1  0.80524400  0.43372400  0.01515500  1
  C  37  1  0.71203000  0.41151800  0.00710400  1
  C  38  1  0.69814600  0.39167300  0.99529500  1
  C  39  1  0.64438300  0.39020500  0.98257800  1
  C  40  1  0.60215200  0.40775700  0.98320400  1
  C  41  1  0.61241600  0.42725400  0.99586800  1
  C  42  1  0.66828400  0.42876600  0.00734700  1
  C  57  1  0.51810300  0.26794300  0.83284700  1
  C  58  1  0.53951300  0.28218700  0.84984000  1
  C  59  1  0.59427600  0.29401000  0.84780500  1
  C  60  1  0.62842200  0.29135800  0.82818800  1
  C  61  1  0.61194600  0.27583900  0.81151000  1
  C  62  1  0.55454300  0.26516600  0.81348100  1
  C  65  1  0.46148600  0.25710600  0.83577100  1
  C  66  1  0.44782100  0.24532600  0.85565400  1
  C  67  1  0.39418900  0.23254200  0.85718600  1
  C  68  1  0.35185900  0.23307300  0.83966000  1
  C  69  1  0.36189600  0.24571900  0.82013600  1
  C  70  1  0.41765000  0.25726200  0.81855600  1
  C  85  1  0.01808900  0.22855000  0.16362400  1
  C  86  1  0.03951300  0.21434600  0.14659800  1
  C  87  1  0.09422500  0.20248800  0.14863700  1
  C  88  1  0.12843900  0.20515100  0.16823700  1
  C  89  1  0.11197600  0.22065400  0.18493200  1
  C  90  1  0.05455900  0.23131800  0.18298200  1
  C  93  1  0.96146500  0.23938500  0.16072500  1
  C  94  1  0.94779200  0.25120200  0.14086400  1
  C  95  1  0.89416000  0.26398900  0.13935800  1
  C  96  1  0.85184400  0.26342800  0.15688500  1
  C  97  1  0.86190400  0.25076100  0.17639400  1
  C  98  1  0.91764900  0.23920900  0.17794700  1
  C  113  1  0.72216400  0.91234300  0.01699200  1
  C  114  1  0.69990200  0.89544400  0.03114300  1
  C  115  1  0.64400300  0.89747300  0.04223900  1
  C  116  1  0.60928400  0.91682100  0.03866400  1
  C  117  1  0.62672500  0.93322400  0.02298300  1
  C  118  1  0.68558400  0.93150100  0.01340200  1
  C  121  1  0.77981200  0.90951600  0.00697800  1
  C  122  1  0.79419600  0.88989900  0.99492700  1
  C  123  1  0.84924500  0.88849100  0.98296900  1
  C  124  1  0.89267800  0.90552900  0.98520800  1
  C  125  1  0.88202400  0.92461400  0.99847900  1
  C  126  1  0.82411700  0.92647600  0.00846800  1
  C  141  1  0.22219000  0.58413800  0.97949900  1
  C  142  1  0.19985100  0.60106700  0.96539700  1
  C  143  1  0.14402800  0.59899800  0.95425500  1
  C  144  1  0.10934000  0.57964400  0.95782300  1
  C  145  1  0.12681800  0.56322900  0.97348200  1
  C  146  1  0.18567000  0.56496000  0.98306400  1
  C  149  1  0.27983800  0.58696700  0.98951200  1
  C  150  1  0.29416200  0.60656200  0.00161000  1
  C  151  1  0.34920200  0.60796400  0.01357400  1
  C  152  1  0.39267700  0.59094600  0.01130000  1
  C  153  1  0.38207300  0.57188200  0.99799400  1
  C  154  1  0.32418200  0.57002500  0.98799100  1
  C  169  1  0.47447800  0.72855500  0.16468400  1
  C  170  1  0.45260600  0.71449800  0.14761500  1
  C  171  1  0.39764100  0.70279500  0.14962800  1
  C  172  1  0.36379700  0.70535700  0.16932800  1
  C  173  1  0.38076400  0.72069700  0.18610900  1
  C  174  1  0.43831200  0.73125900  0.18412900  1
  C  177  1  0.53127400  0.73926800  0.16175400  1
  C  178  1  0.54498500  0.75111400  0.14191300  1
  C  179  1  0.59894700  0.76369800  0.14034200  1
  C  180  1  0.64146600  0.76295100  0.15779200  1
  C  181  1  0.63130000  0.75027500  0.17728800  1
  C  182  1  0.57530400  0.73889300  0.17890000  1
  C  197  1  0.97438200  0.76788100  0.83180800  1
  C  198  1  0.95254200  0.78191200  0.84890700  1
  C  199  1  0.89764000  0.79365600  0.84689400  1
  C  200  1  0.86369600  0.79108100  0.82721800  1
  C  201  1  0.88060500  0.77574600  0.81042600  1
  C  202  1  0.93815600  0.76518200  0.81237900  1
  C  205  1  0.03117900  0.75716300  0.83470800  1
  C  206  1  0.04491800  0.74529400  0.85453200  1
  C  207  1  0.09887200  0.73270000  0.85607400  1
  C  208  1  0.14135100  0.73346200  0.83861300  1
  C  209  1  0.13114300  0.74614600  0.81912600  1
  C  210  1  0.07516100  0.75754100  0.81754600  1
  C  225  1  0.76812200  0.58186300  0.47805600  1
  C  226  1  0.79005400  0.59892300  0.46400400  1
  C  227  1  0.84508500  0.59691000  0.45234700  1
  C  228  1  0.87892100  0.57721100  0.45492800  1
  C  229  1  0.86188100  0.56044000  0.47026800  1
  C  230  1  0.80427200  0.56241800  0.48078900  1
  C  233  1  0.71136200  0.58483000  0.48878400  1
  C  234  1  0.69777300  0.60468900  0.50062000  1
  C  235  1  0.64388500  0.60629200  0.51324300  1
  C  236  1  0.60132600  0.58885500  0.51255500  1
  C  237  1  0.61138400  0.56933900  0.49990100  1
  C  238  1  0.66729600  0.56769900  0.48846600  1
  C  253  1  0.26822800  0.91460500  0.51836600  1
  C  254  1  0.29019300  0.89751800  0.53238200  1
  C  255  1  0.34514900  0.89955800  0.54408500  1
  C  256  1  0.37900300  0.91925000  0.54150100  1
  C  257  1  0.36196900  0.93603000  0.52617300  1
  C  258  1  0.30437100  0.93405300  0.51564700  1
  C  261  1  0.21144900  0.91165400  0.50764800  1
  C  262  1  0.19783700  0.89181400  0.49578300  1
  C  263  1  0.14392700  0.89023400  0.48317100  1
  C  264  1  0.10137500  0.90767000  0.48389700  1
  C  265  1  0.11147300  0.92717400  0.49656600  1
  C  266  1  0.16739500  0.92879200  0.50799600  1
  C  281  1  0.02053400  0.76743300  0.33421600  1
  C  282  1  0.04272700  0.78162400  0.35109400  1
  C  283  1  0.09860400  0.79272900  0.34905600  1
  C  284  1  0.13336300  0.78914300  0.32972400  1
  C  285  1  0.11599700  0.77342000  0.31335200  1
  C  286  1  0.05715700  0.76382200  0.31507400  1
  C  289  1  0.96297700  0.75736100  0.33707800  1
  C  290  1  0.94873200  0.74533500  0.35672500  1
  C  291  1  0.89381100  0.73330400  0.35816400  1
  C  292  1  0.85034000  0.73544000  0.34112600  1
  C  293  1  0.86084900  0.74868000  0.32201000  1
  C  294  1  0.91865000  0.75874700  0.32011900  1
  C  309  1  0.52063000  0.72903500  0.66224600  1
  C  310  1  0.54289800  0.71490400  0.64532900  1
  C  311  1  0.59871600  0.70376200  0.64738700  1
  C  312  1  0.63346600  0.70733700  0.66666667  1
  C  313  1  0.61605500  0.72302300  0.68312300  1
  C  314  1  0.55720500  0.73261100  0.68140600  1
  C  317  1  0.46307200  0.73911000  0.65939000  1
  C  318  1  0.44888900  0.75119100  0.63977000  1
  C  319  1  0.39397100  0.76322500  0.63834100  1
  C  320  1  0.35046000  0.76104600  0.65535800  1
  C  321  1  0.36092300  0.74776600  0.67444800  1
  C  322  1  0.41870600  0.73768300  0.67633000  1
  C  337  1  0.22268300  0.41263400  0.51751800  1
  C  338  1  0.20020800  0.39574300  0.53163400  1
  C  339  1  0.14434900  0.39784700  0.54274100  1
  C  340  1  0.10989400  0.41726800  0.53923500  1
  C  341  1  0.12753000  0.43366100  0.52357400  1
  C  342  1  0.18636400  0.43186600  0.51398300  1
  C  345  1  0.28021800  0.40969700  0.50745200  1
  C  346  1  0.29418000  0.39007300  0.49534200  1
  C  347  1  0.34920100  0.38853800  0.48338800  1
  C  348  1  0.39295800  0.40545600  0.48563200  1
  C  349  1  0.38264800  0.42456000  0.49890900  1
  C  350  1  0.32482300  0.42654800  0.50894000  1
  C  365  1  0.72272700  0.08386300  0.47897400  1
  C  366  1  0.70017400  0.10078000  0.46490600  1
  C  367  1  0.64438000  0.09863500  0.45375600  1
  C  368  1  0.60994300  0.07921300  0.45727200  1
  C  369  1  0.62761600  0.06281200  0.47291700  1
  C  370  1  0.68646000  0.06461400  0.48249500  1
  C  373  1  0.78026500  0.08680200  0.48903900  1
  C  374  1  0.79417300  0.10640500  0.50119100  1
  C  375  1  0.84918100  0.10793100  0.51315400  1
  C  376  1  0.89297000  0.09102800  0.51088300  1
  C  377  1  0.88270000  0.07194400  0.49757500  1
  C  378  1  0.82490000  0.06996500  0.48752300  1
  C  393  1  0.97233600  0.22893600  0.66341800  1
  C  394  1  0.94966100  0.21492700  0.64647300  1
  C  395  1  0.89364800  0.20391600  0.64853400  1
  C  396  1  0.85926500  0.20739800  0.66797500  1
  C  397  1  0.87712400  0.22295500  0.68443500  1
  C  398  1  0.93606800  0.23245900  0.68266500  1
  C  401  1  0.02999700  0.23891900  0.66051400  1
  C  402  1  0.04414900  0.25103500  0.64091000  1
  C  403  1  0.09930700  0.26290800  0.63940700  1
  C  404  1  0.14299100  0.26057900  0.65634000  1
  C  405  1  0.13249400  0.24728700  0.67542100  1
  C  406  1  0.07456200  0.23733400  0.67737200  1
  C  421  1  0.47213500  0.26753500  0.33308300  1
  C  422  1  0.44942000  0.28149300  0.35006400  1
  C  423  1  0.39346400  0.29254300  0.34799100  1
  C  424  1  0.35905800  0.28906700  0.32855400  1
  C  425  1  0.37693100  0.27353800  0.31207000  1
  C  426  1  0.43588600  0.26404400  0.31382500  1
  C  429  1  0.52979800  0.25754900  0.33597600  1
  C  430  1  0.54391000  0.24538800  0.35555300  1
  C  431  1  0.59906900  0.23351500  0.35704700  1
  C  432  1  0.64278100  0.23588200  0.34013000  1
  C  433  1  0.63230600  0.24920000  0.32106800  1
  C  434  1  0.57438200  0.25916500  0.31912700  1
  C  449  1  0.96683500  0.97733600  0.00961400  1
  C  451  1  0.02222200  0.99656200  0.98075900  1
  C  452  1  0.03214700  0.01495700  0.99482200  1
  C  454  1  0.97841900  0.99558800  0.02423500  1
  C  459  1  0.06602700  0.03387400  0.98852500  1
  C  460  1  0.93028100  0.95840000  0.01392700  1
  C  463  1  0.46681700  0.51915500  0.98683500  1
  C  465  1  0.52236200  0.49996400  0.01567900  1
  C  466  1  0.53228900  0.48156400  0.00162500  1
  C  468  1  0.47835400  0.50088500  0.97222800  1
  C  473  1  0.56622900  0.46266000  0.00791700  1
  C  474  1  0.43034200  0.53811400  0.98252400  1
  C  477  1  0.21731100  0.23622500  0.72811100  1
  C  479  1  0.27196100  0.26525100  0.74736600  1
  C  480  1  0.28191900  0.25124700  0.76580100  1
  C  482  1  0.22888900  0.22167300  0.74641700  1
  C  487  1  0.31549500  0.25766400  0.78474700  1
  C  488  1  0.18095900  0.23182600  0.70914500  1
  C  491  1  0.71717800  0.26025600  0.26838800  1
  C  493  1  0.77194800  0.23123700  0.24916900  1
  C  494  1  0.78191700  0.24523300  0.23072900  1
  C  496  1  0.72882600  0.27481000  0.25009000  1
  C  501  1  0.81556000  0.23881900  0.21179600  1
  C  502  1  0.68079900  0.26466300  0.28734500  1
  C  505  1  0.03596100  0.51850600  0.00141200  1
  C  507  1  0.97148800  0.49250200  0.98189300  1
  C  508  1  0.95424600  0.48224400  0.00199900  1
  C  510  1  0.01851300  0.50827600  0.02191800  1
  C  515  1  0.91347400  0.46415500  0.00322300  1
  C  516  1  0.07699300  0.53644700  0.99834100  1
  C  519  1  0.53591900  0.97796200  0.99504300  1
  C  521  1  0.47118900  0.00388400  0.01455900  1
  C  522  1  0.45409000  0.01419200  0.99446200  1
  C  524  1  0.51866800  0.98826000  0.97454900  1
  C  529  1  0.41325800  0.03226300  0.99323700  1
  C  530  1  0.57689200  0.95999900  0.99810500  1
  C  533  1  0.78644300  0.25105500  0.72909500  1
  C  535  1  0.72125400  0.23168300  0.75496900  1
  C  536  1  0.70401700  0.25183400  0.76513900  1
  C  538  1  0.76910400  0.27160300  0.73926800  1
  C  543  1  0.66291700  0.25314800  0.78312200  1
  C  544  1  0.82762900  0.24789500  0.71121600  1
  C  547  1  0.28633600  0.24546100  0.26737500  1
  C  549  1  0.22123400  0.26482600  0.24147000  1
  C  550  1  0.20403200  0.24467300  0.23129300  1
  C  552  1  0.26901900  0.22491000  0.25720400  1
  C  557  1  0.16297300  0.24335600  0.21329700  1
  C  558  1  0.32747200  0.24862300  0.28527100  1
  C  561  1  0.77613000  0.75953800  0.26923000  1
  C  563  1  0.72126500  0.73053800  0.25001600  1
  C  564  1  0.71139400  0.74453100  0.23156700  1
  C  566  1  0.76454600  0.77409000  0.25092500  1
  C  571  1  0.67766200  0.73816900  0.21263900  1
  C  572  1  0.81248000  0.76397000  0.28818900  1
  C  575  1  0.27622000  0.73687400  0.72722300  1
  C  577  1  0.22112600  0.76585500  0.74638400  1
  C  578  1  0.21120000  0.75186500  0.76483200  1
  C  580  1  0.26466100  0.72233200  0.74554200  1
  C  585  1  0.17741000  0.75822700  0.78374500  1
  C  586  1  0.31252800  0.73244800  0.70825100  1
  C  589  1  0.20740000  0.74530000  0.26889400  1
  C  591  1  0.27252300  0.76470600  0.24302200  1
  C  592  1  0.28963900  0.74457100  0.23279000  1
  C  594  1  0.22475600  0.72476400  0.25870300  1
  C  599  1  0.33050900  0.74328700  0.21473500  1
  C  600  1  0.16612700  0.74844200  0.28675100  1
  C  603  1  0.70733400  0.75111900  0.72762500  1
  C  605  1  0.77233100  0.73171700  0.75354200  1
  C  606  1  0.78943400  0.75185400  0.76377200  1
  C  608  1  0.72469800  0.77165900  0.73780900  1
  C  613  1  0.83026500  0.75313900  0.78184000  1
  C  614  1  0.66611800  0.74797800  0.70975100  1
  C  617  1  0.46751000  0.47728900  0.50967300  1
  C  619  1  0.52171200  0.49649800  0.48050900  1
  C  620  1  0.53160100  0.51499600  0.49443300  1
  C  622  1  0.47916800  0.49563400  0.52416200  1
  C  627  1  0.56503000  0.53395000  0.48794300  1
  C  628  1  0.43129100  0.45832300  0.51420700  1
  C  631  1  0.96748400  0.01920600  0.48679400  1
  C  633  1  0.02184200  0.00003100  0.51594800  1
  C  634  1  0.03176100  0.98153400  0.50202700  1
  C  636  1  0.97910000  0.00084400  0.47231900  1
  C  641  1  0.06521400  0.96258400  0.50851700  1
  C  642  1  0.93134700  0.03819400  0.48226000  1
  C  645  1  0.53641700  0.01837100  0.50113800  1
  C  647  1  0.47068200  0.99259400  0.48188600  1
  C  648  1  0.45352900  0.98247400  0.50207200  1
  C  650  1  0.51911000  0.00826700  0.52172200  1
  C  655  1  0.41233800  0.96452400  0.50346200  1
  C  656  1  0.57780000  0.03617800  0.49791100  1
  C  659  1  0.03636300  0.47812000  0.49534600  1
  C  661  1  0.97053700  0.50387700  0.51458000  1
  C  662  1  0.95341800  0.51400000  0.49439200  1
  C  664  1  0.01909900  0.48822900  0.47475600  1
  C  669  1  0.91220500  0.53194700  0.49299300  1
  C  670  1  0.07774500  0.46031600  0.49859100  1
  C  673  1  0.40348500  0.18192300  0.89132100  1
  C  675  1  0.37636900  0.17482000  0.92926300  1
  C  676  1  0.37817200  0.15163400  0.92551200  1
  C  678  1  0.40516100  0.15865400  0.88716700  1
  C  683  1  0.36307200  0.13566700  0.94203700  1
  C  684  1  0.41705300  0.19845700  0.87537100  1
  C  687  1  0.90360400  0.31462800  0.10522300  1
  C  689  1  0.87654500  0.32167900  0.06726600  1
  C  690  1  0.87820600  0.34486900  0.07100000  1
  C  692  1  0.90514000  0.33790300  0.10935800  1
  C  697  1  0.86313500  0.36081600  0.05445200  1
  C  698  1  0.91713600  0.29812100  0.12120000  1
  C  701  1  0.65331700  0.35583500  0.93207900  1
  C  703  1  0.62603900  0.31785800  0.92525000  1
  C  704  1  0.62761900  0.32146600  0.90204100  1
  C  706  1  0.65480200  0.35984100  0.90878200  1
  C  711  1  0.61241600  0.30484100  0.88619200  1
  C  712  1  0.66704400  0.37188300  0.94849200  1
  C  715  1  0.15306600  0.14069400  0.06430900  1
  C  717  1  0.12582400  0.17866800  0.07116900  1
  C  718  1  0.12746800  0.17505000  0.09437700  1
  C  720  1  0.15462100  0.13667700  0.08760300  1
  C  725  1  0.11228200  0.19166700  0.11023800  1
  C  726  1  0.16677900  0.12465500  0.04787900  1
  C  729  1  0.58992400  0.81412800  0.10585000  1
  C  731  1  0.61484700  0.82040000  0.06755900  1
  C  732  1  0.61291000  0.84365900  0.07078800  1
  C  734  1  0.58825200  0.83748600  0.10948600  1
  C  739  1  0.62696500  0.85924700  0.05378900  1
  C  740  1  0.57704000  0.79792400  0.12221500  1
  C  743  1  0.08969300  0.68226200  0.89057700  1
  C  745  1  0.11461400  0.67604500  0.92887700  1
  C  746  1  0.11277500  0.65278000  0.92567200  1
  C  748  1  0.08813100  0.65890100  0.88696600  1
  C  753  1  0.12687800  0.63721600  0.94268600  1
  C  754  1  0.07685300  0.69843700  0.87418400  1
  C  757  1  0.34077400  0.64130500  0.06490700  1
  C  759  1  0.36724600  0.67932000  0.07201600  1
  C  760  1  0.36474000  0.67564400  0.09520300  1
  C  762  1  0.33826200  0.63724800  0.08818900  1
  C  767  1  0.37934000  0.69222700  0.11117400  1
  C  768  1  0.32759500  0.62533800  0.04833200  1
  C  771  1  0.84106800  0.85514400  0.93165700  1
  C  773  1  0.86744300  0.81712400  0.92452600  1
  C  774  1  0.86492700  0.82081200  0.90134000  1
  C  776  1  0.83855900  0.85921500  0.90837700  1
  C  781  1  0.87948700  0.80423200  0.88535900  1
  C  782  1  0.82786400  0.87110200  0.94824200  1
  C  785  1  0.90245400  0.68193600  0.39137400  1
  C  787  1  0.87591600  0.67461000  0.42933700  1
  C  788  1  0.87846400  0.65144500  0.42552800  1
  C  790  1  0.90500400  0.65867900  0.38718100  1
  C  795  1  0.86374800  0.63538400  0.44200600  1
  C  796  1  0.91559700  0.69859900  0.37549600  1
  C  799  1  0.40280600  0.81460700  0.60512500  1
  C  801  1  0.37622200  0.82188300  0.56715700  1
  C  802  1  0.37861800  0.84505100  0.57094900  1
  C  804  1  0.40521700  0.83787000  0.60930100  1
  C  809  1  0.36386900  0.86109200  0.55445600  1
  C  810  1  0.41593900  0.79796500  0.62102200  1
  C  813  1  0.15333200  0.85596400  0.43260400  1
  C  815  1  0.12859300  0.81768400  0.42618200  1
  C  816  1  0.13018700  0.82104100  0.40293500  1
  C  818  1  0.15467600  0.85972300  0.40926400  1
  C  823  1  0.11599300  0.80411600  0.38729000  1
  C  824  1  0.16617700  0.87226200  0.44887100  1
  C  827  1  0.65323400  0.64056700  0.56378300  1
  C  829  1  0.62863000  0.67885200  0.57023800  1
  C  830  1  0.63024800  0.67548100  0.59348200  1
  C  832  1  0.65461800  0.63679100  0.58712100  1
  C  837  1  0.61610800  0.69239900  0.60914300  1
  C  838  1  0.66604000  0.62427700  0.54750300  1
  C  841  1  0.09078400  0.31408500  0.60584900  1
  C  843  1  0.11541900  0.32065200  0.56757600  1
  C  844  1  0.11276800  0.34388700  0.57091100  1
  C  846  1  0.08827700  0.33742300  0.60957900  1
  C  851  1  0.12661200  0.35959200  0.55400000  1
  C  852  1  0.07826900  0.29771300  0.62209900  1
  C  855  1  0.59039300  0.18232300  0.39060500  1
  C  857  1  0.61506600  0.17580100  0.42888300  1
  C  858  1  0.61260200  0.15256400  0.42555600  1
  C  860  1  0.58804600  0.15898000  0.38688800  1
  C  865  1  0.62650600  0.13687700  0.44247900  1
  C  866  1  0.57788400  0.19867300  0.37433600  1
  C  869  1  0.83989000  0.14126900  0.56446300  1
  C  871  1  0.86428600  0.17952900  0.57122600  1
  C  872  1  0.86180800  0.17605600  0.59444200  1
  C  874  1  0.83750000  0.13740900  0.58778100  1
  C  879  1  0.87567200  0.19288600  0.61023500  1
  C  880  1  0.82753400  0.12509100  0.54800700  1
  C  883  1  0.34010700  0.35519900  0.43209800  1
  C  885  1  0.36427300  0.31692400  0.42531600  1
  C  886  1  0.36179300  0.32040500  0.40210100  1
  C  888  1  0.33773700  0.35907100  0.40878100  1
  C  893  1  0.37557900  0.30357400  0.38630200  1
  C  894  1  0.32776500  0.37137400  0.44855900  1
  H  7  1  0.26308100  0.11260200  0.96110100  1
  H  8  1  0.41979100  0.07646000  0.94709300  1
  H  15  1  0.06377300  0.09003500  0.02276000  1
  H  16  1  0.17813000  0.05349800  0.98067300  1
  H  19  1  0.27722100  0.03305300  0.98516300  1
  H  20  1  0.22470700  0.13443300  0.99575600  1
  H  22  1  0.04181000  0.05324900  0.01392700  1
  H  24  1  0.09683100  0.13132400  0.02744300  1
  H  26  1  0.38071000  0.10802200  0.92398700  1
  H  28  1  0.43093900  0.04084400  0.96184500  1
  H  35  1  0.76315700  0.38387100  0.03532100  1
  H  36  1  0.91978400  0.42002200  0.04941500  1
  H  43  1  0.56391200  0.40651300  0.97365300  1
  H  44  1  0.67827600  0.44298500  0.01579700  1
  H  47  1  0.77737300  0.46343300  0.01128800  1
  H  48  1  0.72483600  0.36207000  0.00059900  1
  H  50  1  0.54193400  0.44327100  0.98253800  1
  H  52  1  0.59714400  0.36517500  0.96904300  1
  H  54  1  0.88063800  0.38847800  0.07249100  1
  H  56  1  0.93102400  0.45564700  0.03463700  1
  H  63  1  0.51250200  0.28547200  0.86328600  1
  H  64  1  0.66893000  0.29956100  0.82700300  1
  H  71  1  0.31369500  0.22348800  0.84095000  1
  H  72  1  0.42750900  0.26568000  0.80430600  1
  H  75  1  0.52662300  0.26117000  0.78379800  1
  H  76  1  0.47465200  0.25073600  0.88521700  1
  H  78  1  0.29155000  0.23224600  0.80415300  1
  H  80  1  0.34708800  0.21882400  0.88221700  1
  H  82  1  0.62972800  0.32275600  0.85843400  1
  H  84  1  0.68030100  0.28461300  0.79148900  1
  H  91  1  0.01241400  0.21103100  0.13318300  1
  H  92  1  0.16891100  0.19692500  0.16941300  1
  H  99  1  0.81372300  0.27304000  0.15562200  1
  H  100  1  0.92752000  0.23076600  0.19218100  1
  H  103  1  0.02668000  0.23527800  0.21267700  1
  H  104  1  0.97462600  0.24584400  0.11129200  1
  H  106  1  0.79157100  0.26422700  0.19238900  1
  H  108  1  0.84727600  0.27762200  0.11429600  1
  H  110  1  0.12965800  0.17374600  0.13798700  1
  H  112  1  0.18039700  0.21189300  0.20493000  1
  H  119  1  0.72700800  0.88214600  0.03491400  1
  H  120  1  0.56780600  0.91791000  0.04618900  1
  H  127  1  0.93236300  0.90417500  0.97651400  1
  H  128  1  0.81322500  0.94061700  0.01691100  1
  H  131  1  0.71314100  0.96124800  0.00961200  1
  H  132  1  0.76574400  0.86040600  0.99941400  1
  H  134  1  0.95740300  0.93983600  0.98826000  1
  H  136  1  0.89709300  0.86383700  0.96883500  1
  H  138  1  0.60705800  0.88728200  0.07089900  1
  H  140  1  0.55600800  0.95285100  0.02970000  1
  H  147  1  0.22698400  0.61435100  0.96160000  1
  H  148  1  0.06791500  0.57853700  0.95025900  1
  H  155  1  0.43232300  0.59228100  0.02002200  1
  H  156  1  0.31333300  0.55589800  0.97951600  1
  H  159  1  0.21329200  0.53521500  0.98681200  1
  H  160  1  0.26562200  0.63605200  0.99718300  1
  H  162  1  0.45740800  0.55664200  0.00822800  1
  H  164  1  0.39680900  0.63264900  0.02765500  1
  H  166  1  0.10711300  0.60916200  0.92558500  1
  H  168  1  0.05606900  0.54359400  0.96676400  1
  H  175  1  0.47942600  0.71124500  0.13410900  1
  H  176  1  0.32317700  0.69723200  0.17052000  1
  H  183  1  0.67986400  0.77240500  0.15647000  1
  H  184  1  0.56543700  0.73042700  0.19312000  1
  H  187  1  0.46663400  0.73496700  0.21379900  1
  H  188  1  0.51760700  0.74597500  0.11236400  1
  H  190  1  0.70208600  0.76349900  0.19320900  1
  H  192  1  0.64582900  0.77709200  0.11508100  1
  H  194  1  0.36188300  0.67416000  0.13882400  1
  H  196  1  0.31257700  0.71190700  0.20620400  1
  H  203  1  0.97947400  0.78519800  0.86237400  1
  H  204  1  0.82312100  0.79923600  0.82604000  1
  H  211  1  0.17970200  0.72397700  0.83990500  1
  H  212  1  0.06526600  0.76602400  0.80333700  1
  H  215  1  0.96639200  0.76149100  0.78269400  1
  H  216  1  0.01759500  0.75040200  0.88409200  1
  H  218  1  0.20189200  0.73291800  0.80319000  1
  H  220  1  0.14555600  0.71939000  0.88136300  1
  H  222  1  0.86194400  0.82229800  0.85771700  1
  H  224  1  0.81234200  0.78452600  0.79035800  1
  H  231  1  0.76328600  0.61244300  0.46074700  1
  H  232  1  0.91961800  0.57603600  0.44685300  1
  H  239  1  0.56301400  0.59019000  0.52205500  1
  H  240  1  0.67709400  0.55346000  0.48001800  1
  H  243  1  0.77596800  0.53274800  0.48450000  1
  H  244  1  0.72524600  0.63422600  0.49547000  1
  H  246  1  0.54076400  0.55342900  0.51325900  1
  H  248  1  0.59725200  0.63156500  0.52672400  1
  H  250  1  0.88099800  0.60781600  0.42377600  1
  H  252  1  0.93024800  0.54038000  0.46159100  1
  H  259  1  0.26336700  0.88402200  0.53566800  1
  H  260  1  0.41964300  0.92043200  0.54961400  1
  H  267  1  0.06308900  0.90636000  0.47438000  1
  H  268  1  0.17721200  0.94301600  0.51646600  1
  H  271  1  0.27607600  0.96372800  0.51195200  1
  H  272  1  0.22532600  0.86227400  0.50088300  1
  H  274  1  0.04085000  0.94309400  0.48322600  1
  H  276  1  0.09749200  0.86493000  0.46978100  1
  H  278  1  0.38099100  0.88867700  0.57267400  1
  H  280  1  0.43032300  0.95608600  0.53486600  1
  H  287  1  0.01563200  0.78538800  0.36439900  1
  H  288  1  0.17485400  0.79666200  0.32864900  1
  H  295  1  0.81076100  0.72668400  0.34249800  1
  H  296  1  0.92945800  0.76716300  0.30595300  1
  H  299  1  0.02970600  0.75994900  0.28532600  1
  H  300  1  0.97718800  0.74989600  0.38620700  1
  H  302  1  0.78561200  0.73829700  0.30679700  1
  H  304  1  0.84618500  0.71908500  0.38282400  1
  H  306  1  0.13548300  0.82137900  0.35930100  1
  H  308  1  0.18683300  0.78008200  0.29376900  1
  H  315  1  0.51576300  0.71112000  0.63204300  1
  H  316  1  0.67491500  0.69978600  0.66780500  1
  H  323  1  0.31091500  0.76982900  0.65400600  1
  H  324  1  0.42947300  0.72922800  0.69047900  1
  H  327  1  0.52969200  0.73640900  0.71115600  1
  H  328  1  0.47743300  0.74670400  0.61029000  1
  H  330  1  0.28571900  0.75815600  0.68967500  1
  H  332  1  0.34657200  0.77738000  0.61365000  1
  H  334  1  0.63557600  0.67511400  0.63712100  1
  H  336  1  0.68693600  0.71636300  0.70271300  1
  H  343  1  0.22710400  0.38236900  0.53534400  1
  H  344  1  0.06840300  0.41839600  0.54674400  1
  H  351  1  0.43258300  0.40401800  0.47691200  1
  H  352  1  0.31420300  0.44070400  0.51740500  1
  H  355  1  0.21422300  0.46157600  0.51021700  1
  H  356  1  0.26505000  0.36065500  0.49972600  1
  H  358  1  0.45812300  0.43964800  0.48858200  1
  H  360  1  0.39622500  0.36363000  0.46934300  1
  H  362  1  0.10747300  0.38754800  0.57137900  1
  H  364  1  0.05686700  0.45336300  0.53022200  1
  H  371  1  0.72709400  0.11413600  0.46116300  1
  H  372  1  0.56849700  0.07807000  0.44972800  1
  H  379  1  0.93255300  0.09244800  0.51963300  1
  H  380  1  0.81431600  0.05582100  0.47903000  1
  H  383  1  0.71436000  0.03490200  0.48621500  1
  H  384  1  0.76498300  0.13582200  0.49685400  1
  H  386  1  0.95811800  0.05683300  0.50792300  1
  H  388  1  0.89598600  0.13286600  0.52714200  1
  H  390  1  0.60753700  0.10890400  0.42510600  1
  H  392  1  0.55694200  0.04311900  0.46627300  1
  H  399  1  0.97649400  0.21121700  0.63308200  1
  H  400  1  0.81767800  0.19995500  0.66907700  1
  H  407  1  0.18272900  0.26923200  0.65492000  1
  H  408  1  0.06384700  0.22885100  0.69150900  1
  H  411  1  0.96397700  0.23606900  0.71239000  1
  H  412  1  0.01509400  0.24673000  0.61146700  1
  H  414  1  0.20802400  0.25748400  0.69055500  1
  H  416  1  0.14665700  0.27683600  0.61451500  1
  H  418  1  0.85649100  0.17537500  0.63810500  1
  H  420  1  0.80649300  0.21630700  0.70412000  1
  H  427  1  0.47631300  0.28522700  0.36343000  1
  H  428  1  0.31751600  0.29654400  0.32745200  1
  H  435  1  0.68248900  0.22720800  0.34153400  1
  H  436  1  0.56368800  0.26767700  0.30500600  1
  H  439  1  0.46381400  0.26049700  0.28409500  1
  H  440  1  0.51479200  0.24962800  0.38499800  1
  H  442  1  0.70785700  0.23901400  0.30594200  1
  H  444  1  0.64620200  0.21965200  0.38197000  1
  H  446  1  0.35635300  0.32108800  0.35843900  1
  H  448  1  0.30622900  0.28018300  0.29238700  1
  H  455  1  0.03754300  0.99615100  0.96472400  1
  H  457  1  0.94696800  0.98513800  0.05449900  1
  H  458  1  0.97554300  0.01047500  0.05453700  1
  H  469  1  0.53775000  0.50039500  0.03170500  1
  H  471  1  0.44566200  0.51107600  0.94202700  1
  H  472  1  0.47472400  0.48581900  0.94199400  1
  H  483  1  0.28695100  0.28132800  0.74695500  1
  H  485  1  0.19703600  0.19136500  0.73615800  1
  H  486  1  0.22567600  0.19143400  0.76147900  1
  H  497  1  0.78693200  0.21516000  0.24958700  1
  H  499  1  0.69705100  0.30512600  0.26035600  1
  H  500  1  0.72576600  0.30506100  0.23504500  1
  H  511  1  0.95558100  0.48727400  0.96681000  1
  H  513  1  0.06431200  0.52549700  0.04612400  1
  H  514  1  0.02100700  0.50532100  0.05561200  1
  H  525  1  0.45511100  0.00905500  0.02963600  1
  H  527  1  0.56505000  0.97122400  0.95035800  1
  H  528  1  0.52164400  0.99137500  0.94087600  1
  H  539  1  0.70507400  0.21663300  0.76018000  1
  H  541  1  0.81582500  0.29570000  0.72222800  1
  H  542  1  0.77211800  0.30529100  0.74223800  1
  H  553  1  0.20507800  0.27987400  0.23624500  1
  H  555  1  0.31561500  0.20081400  0.27429000  1
  H  556  1  0.27199800  0.19121900  0.25425500  1
  H  567  1  0.70610600  0.71448300  0.25045200  1
  H  569  1  0.79545600  0.80444200  0.26132700  1
  H  570  1  0.76715600  0.80435600  0.23595000  1
  H  581  1  0.20589200  0.78190000  0.74592600  1
  H  583  1  0.29690300  0.69204700  0.73540700  1
  H  584  1  0.26804100  0.69213500  0.76069500  1
  H  595  1  0.28864100  0.77976400  0.23781000  1
  H  597  1  0.17826100  0.70064000  0.27578900  1
  H  598  1  0.22181900  0.69107700  0.25572100  1
  H  609  1  0.78839800  0.71665900  0.75877300  1
  H  611  1  0.67840000  0.79578400  0.72065500  1
  H  612  1  0.72185600  0.80535100  0.74075000  1
  H  623  1  0.53661000  0.49604500  0.46442000  1
  H  625  1  0.44903800  0.48519700  0.55459900  1
  H  626  1  0.47698700  0.51063000  0.55441900  1
  H  637  1  0.03679400  0.00050100  0.53203000  1
  H  639  1  0.94771500  0.01102800  0.44193400  1
  H  640  1  0.97615600  0.98567300  0.44212800  1
  H  651  1  0.45432800  0.98738100  0.46686400  1
  H  653  1  0.56647800  0.02518900  0.54573100  1
  H  654  1  0.52246200  0.00531200  0.55540800  1
  H  665  1  0.95414600  0.50908500  0.52959800  1
  H  667  1  0.06677400  0.47139300  0.45076900  1
  H  668  1  0.02264200  0.49122800  0.44107900  1
  H  679  1  0.36550400  0.18137500  0.94443100  1
  H  681  1  0.41977300  0.15768000  0.85364600  1
  H  682  1  0.41338400  0.13287100  0.86555900  1
  H  693  1  0.86576000  0.31510400  0.05209800  1
  H  695  1  0.92021400  0.33893800  0.14286200  1
  H  696  1  0.91366900  0.36372800  0.13092400  1
  H  707  1  0.61518600  0.30273500  0.93191400  1
  H  709  1  0.67028900  0.39332200  0.90754200  1
  H  710  1  0.66354600  0.38124200  0.88283000  1
  H  721  1  0.11495300  0.19379500  0.06451600  1
  H  723  1  0.17000600  0.10318700  0.08881000  1
  H  724  1  0.16332900  0.11524900  0.11353500  1
  H  735  1  0.62487600  0.81351000  0.05246100  1
  H  737  1  0.57561000  0.83917900  0.14308500  1
  H  738  1  0.58101600  0.86372700  0.13058000  1
  H  749  1  0.12461500  0.68295600  0.94397000  1
  H  751  1  0.07496100  0.65714400  0.85338600  1
  H  752  1  0.08052300  0.63261400  0.86591700  1
  H  763  1  0.37822600  0.69447500  0.06545500  1
  H  765  1  0.32316300  0.60373600  0.08929700  1
  H  766  1  0.32853100  0.61580100  0.11405700  1
  H  777  1  0.87839200  0.80196300  0.93107800  1
  H  779  1  0.82364100  0.89273800  0.90729900  1
  H  780  1  0.82897800  0.88069200  0.88252700  1
  H  791  1  0.86489100  0.68108300  0.44452500  1
  H  793  1  0.91941200  0.65779800  0.35364500  1
  H  794  1  0.91412800  0.63295500  0.36555000  1
  H  805  1  0.36523600  0.81539000  0.55197200  1
  H  807  1  0.42019000  0.83880900  0.64281400  1
  H  808  1  0.41470000  0.86363400  0.63088600  1
  H  819  1  0.11873500  0.80254300  0.43301000  1
  H  821  1  0.16784400  0.89332400  0.40769200  1
  H  822  1  0.16209100  0.88093200  0.38309900  1
  H  833  1  0.61880200  0.69400200  0.56342200  1
  H  835  1  0.66761000  0.60318000  0.58865800  1
  H  836  1  0.66192600  0.61555100  0.61326500  1
  H  847  1  0.12571100  0.31387000  0.55245100  1
  H  849  1  0.07557200  0.33895500  0.64318200  1
  H  850  1  0.08004300  0.36356300  0.63075200  1
  H  861  1  0.62531100  0.18260100  0.44400400  1
  H  863  1  0.57477900  0.15739800  0.35330400  1
  H  864  1  0.57948400  0.13280500  0.36575000  1
  H  875  1  0.87447200  0.19469700  0.56452200  1
  H  877  1  0.82423900  0.10380400  0.58916100  1
  H  878  1  0.82885100  0.11611300  0.61382400  1
  H  889  1  0.37436900  0.30174400  0.43201300  1
  H  891  1  0.32478000  0.39269200  0.40742800  1
  H  892  1  0.32932200  0.38039800  0.38275400  1
  N  21  1  0.07128700  0.05219400  0.00187600  1
  N  23  1  0.13531500  0.12343400  0.02840000  1
  N  25  1  0.36381600  0.11329900  0.93802100  1
  N  27  1  0.40238500  0.04363200  0.97392300  1
  N  49  1  0.57143600  0.44432900  0.99458100  1
  N  51  1  0.63548200  0.37315200  0.96793400  1
  N  53  1  0.86380600  0.38318700  0.05845400  1
  N  55  1  0.90247000  0.45284700  0.02256500  1
  N  77  1  0.32087900  0.24434500  0.80308400  1
  N  79  1  0.38551300  0.21792900  0.87428000  1
  N  81  1  0.61297300  0.30873500  0.86380100  1
  N  83  1  0.65177400  0.27254000  0.79433100  1
  N  105  1  0.82091400  0.25213200  0.19345500  1
  N  107  1  0.88554700  0.27867700  0.12232200  1
  N  109  1  0.11288500  0.18776700  0.13262700  1
  N  111  1  0.15183900  0.22395800  0.20210000  1
  N  133  1  0.92525300  0.94098300  0.99932400  1
  N  135  1  0.85884400  0.87187900  0.96786100  1
  N  137  1  0.62475400  0.88170900  0.05711700  1
  N  139  1  0.58629700  0.94989100  0.01827100  1
  N  161  1  0.42530600  0.55551500  0.99714300  1
  N  163  1  0.35871500  0.62451500  0.02875600  1
  N  165  1  0.12477000  0.61475000  0.93936800  1
  N  167  1  0.08641300  0.54654900  0.97817000  1
  N  189  1  0.67248900  0.75148900  0.19429700  1
  N  191  1  0.60783600  0.77829200  0.12325400  1
  N  193  1  0.37859200  0.68822100  0.13354400  1
  N  195  1  0.34124500  0.72394000  0.20339500  1
  N  217  1  0.17228400  0.74492400  0.80210300  1
  N  219  1  0.10771200  0.71804100  0.87311000  1
  N  221  1  0.87867000  0.80823700  0.86299000  1
  N  223  1  0.84103000  0.77249600  0.79315900  1
  N  245  1  0.57023900  0.55232800  0.50120800  1
  N  247  1  0.63520600  0.62336000  0.52787300  1
  N  249  1  0.86429800  0.61304000  0.43785900  1
  N  251  1  0.90146900  0.54319200  0.47358900  1
  N  273  1  0.07035300  0.94419500  0.49526700  1
  N  275  1  0.13528400  0.87322100  0.46847300  1
  N  277  1  0.36433100  0.88343800  0.55859000  1
  N  279  1  0.40156200  0.95327700  0.52286100  1
  N  301  1  0.81762400  0.74941600  0.30563700  1
  N  303  1  0.88444300  0.71818300  0.37477900  1
  N  305  1  0.11788100  0.80756700  0.36484200  1
  N  307  1  0.15654600  0.76865500  0.29674100  1
  N  329  1  0.31768800  0.74702000  0.69081700  1
  N  331  1  0.38467200  0.77842000  0.62178800  1
  N  333  1  0.61799700  0.68893400  0.63158800  1
  N  335  1  0.65657600  0.72776300  0.69974900  1
  N  357  1  0.42607800  0.44085600  0.49968300  1
  N  359  1  0.35841600  0.37193300  0.46825500  1
  N  361  1  0.12483300  0.38203300  0.55751600  1
  N  363  1  0.08719500  0.45034600  0.51882500  1
  N  385  1  0.92612600  0.05564800  0.49679900  1
  N  387  1  0.85832600  0.12448000  0.52835600  1
  N  389  1  0.62484900  0.11443500  0.43897100  1
  N  391  1  0.58729000  0.04612600  0.47766500  1
  N  413  1  0.17588200  0.24641800  0.69172600  1
  N  415  1  0.10881100  0.27800100  0.62278500  1
  N  417  1  0.87393400  0.18924900  0.63265500  1
  N  419  1  0.83689300  0.22769500  0.70115600  1
  N  441  1  0.67571200  0.25008000  0.30476900  1
  N  443  1  0.60851800  0.21835500  0.37361200  1
  N  445  1  0.37378200  0.30720900  0.36388100  1
  N  447  1  0.33670600  0.26882400  0.29534100  1
  N  450  1  0.98997200  0.97912400  0.98864800  1
  N  453  1  0.00993300  0.01315200  0.01582300  1
  N  456  1  0.96317800  0.99743900  0.04604300  1
  N  464  1  0.49004900  0.51738500  0.00779000  1
  N  467  1  0.50996000  0.48334400  0.98063800  1
  N  470  1  0.46288200  0.49895000  0.95045000  1
  N  478  1  0.24003000  0.25725200  0.72990400  1
  N  481  1  0.26008100  0.23019000  0.76400800  1
  N  484  1  0.21388900  0.19985000  0.74831200  1
  N  492  1  0.73994100  0.23923400  0.26661500  1
  N  495  1  0.76008400  0.26629200  0.23251600  1
  N  498  1  0.71391000  0.29664300  0.24820300  1
  N  506  1  0.01097900  0.50969600  0.98261900  1
  N  509  1  0.97893200  0.49093200  0.02078300  1
  N  512  1  0.03636000  0.51362700  0.04287100  1
  N  520  1  0.51072800  0.98670400  0.01383000  1
  N  523  1  0.47900600  0.00558000  0.97568500  1
  N  526  1  0.53683800  0.98301700  0.95360500  1
  N  534  1  0.76106600  0.23231700  0.73787300  1
  N  537  1  0.72914000  0.27056100  0.75649700  1
  N  540  1  0.78741600  0.29251500  0.73396800  1
  N  548  1  0.26099200  0.26419500  0.25858400  1
  N  551  1  0.22911900  0.22594900  0.23995300  1
  N  554  1  0.28728600  0.20399800  0.26252400  1
  N  562  1  0.75325900  0.73852700  0.26747400  1
  N  565  1  0.73331800  0.76557500  0.23334600  1
  N  568  1  0.77951400  0.79592100  0.24903200  1
  N  576  1  0.25323200  0.75786900  0.72895500  1
  N  579  1  0.23328400  0.73084000  0.76308700  1
  N  582  1  0.27989000  0.70053500  0.74752600  1
  N  590  1  0.23274900  0.76404800  0.26012900  1
  N  593  1  0.26458900  0.72583200  0.24143200  1
  N  596  1  0.20652100  0.70384400  0.26400200  1
  N  604  1  0.73262000  0.73237200  0.73641300  1
  N  607  1  0.76445600  0.77059500  0.75510400  1
  N  610  1  0.70654900  0.79258100  0.73247500  1
  N  618  1  0.49002000  0.47902200  0.48860900  1
  N  621  1  0.51006700  0.51323800  0.51553500  1
  N  624  1  0.46458000  0.49752700  0.54602600  1
  N  632  1  0.99008200  0.01749000  0.50784800  1
  N  635  1  0.01009600  0.98326400  0.48094200  1
  N  638  1  0.96428200  0.99886500  0.45048400  1
  N  646  1  0.51075000  0.00961400  0.48244500  1
  N  649  1  0.47893300  0.99109900  0.52075500  1
  N  652  1  0.53773000  0.01354500  0.54260300  1
  N  660  1  0.01063500  0.48686600  0.51403000  1
  N  663  1  0.97889000  0.50538500  0.47571500  1
  N  666  1  0.03785400  0.48298300  0.45388400  1
  N  674  1  0.38896100  0.18883100  0.91221200  1
  N  677  1  0.39216500  0.14493900  0.90452000  1
  N  680  1  0.41565900  0.14898000  0.86715200  1
  N  688  1  0.88916100  0.30769100  0.08433500  1
  N  691  1  0.89213200  0.35159400  0.09199000  1
  N  694  1  0.91557800  0.34761100  0.12936000  1
  N  702  1  0.63880000  0.33499400  0.93913600  1
  N  705  1  0.64163800  0.34240800  0.89519400  1
  N  708  1  0.66532200  0.37978000  0.89896000  1
  N  716  1  0.13853800  0.16153900  0.05726800  1
  N  719  1  0.14147400  0.15410000  0.10120500  1
  N  722  1  0.16507800  0.11672400  0.09740600  1
  N  730  1  0.60332200  0.80677000  0.08501300  1
  N  733  1  0.60007400  0.85082600  0.09172800  1
  N  736  1  0.57879800  0.84758500  0.12935900  1
  N  744  1  0.10305400  0.68965000  0.91140800  1
  N  747  1  0.09997600  0.64558700  0.90473900  1
  N  750  1  0.07869500  0.64876400  0.86710900  1
  N  758  1  0.35528300  0.66220200  0.05801100  1
  N  761  1  0.35065400  0.65466200  0.10190300  1
  N  764  1  0.32747200  0.61728300  0.09792000  1
  N  772  1  0.85552600  0.83423900  0.93854000  1
  N  775  1  0.85091900  0.84180600  0.89465300  1
  N  778  1  0.82790000  0.87919700  0.89866200  1
  N  786  1  0.88789200  0.68871400  0.41230300  1
  N  789  1  0.89257800  0.64486300  0.40451200  1
  N  792  1  0.91580300  0.64907400  0.36715300  1
  N  800  1  0.38827700  0.80780200  0.58420100  1
  N  803  1  0.39272300  0.85166100  0.59195800  1
  N  806  1  0.41600900  0.84750900  0.62931100  1
  N  814  1  0.14016800  0.83507800  0.43988000  1
  N  817  1  0.14279600  0.84202600  0.39585400  1
  N  820  1  0.16389000  0.87965100  0.39924400  1
  N  828  1  0.64012600  0.66146300  0.55652600  1
  N  831  1  0.64279000  0.65448300  0.60054600  1
  N  834  1  0.66371300  0.61684600  0.59712100  1
  N  842  1  0.10435900  0.30689700  0.58496900  1
  N  845  1  0.09968800  0.35089600  0.59188200  1
  N  848  1  0.07840200  0.34741500  0.62948000  1
  N  856  1  0.60392100  0.18953600  0.41148000  1
  N  859  1  0.59954000  0.14552800  0.40459400  1
  N  862  1  0.57819600  0.14895800  0.36700200  1
  N  870  1  0.85329100  0.16220100  0.55738100  1
  N  873  1  0.84886600  0.15503900  0.60134500  1
  N  876  1  0.82777400  0.11745000  0.59767400  1
  N  884  1  0.35338300  0.33425300  0.43917100  1
  N  887  1  0.34901200  0.34143900  0.39520800  1
  N  890  1  0.32821400  0.37904900  0.39890100  1
  O  17  1  0.28461200  0.04607100  0.99473200  1
  O  18  1  0.24055500  0.12118900  0.00342300  1
  O  45  1  0.78475900  0.45041400  0.00171700  1
  O  46  1  0.74067000  0.37532500  0.99294900  1
  O  73  1  0.53407300  0.25165300  0.79685000  1
  O  74  1  0.49046500  0.24306700  0.87196900  1
  O  101  1  0.03409700  0.24481000  0.19963400  1
  O  102  1  0.99043300  0.25349400  0.12455200  1
  O  129  1  0.70733900  0.94808700  0.00009400  1
  O  130  1  0.75129900  0.87383900  0.99170300  1
  O  157  1  0.20746800  0.54836000  0.99634700  1
  O  158  1  0.25121900  0.62259700  0.00486700  1
  O  185  1  0.45919100  0.74459900  0.20083300  1
  O  186  1  0.50218300  0.75362200  0.12568700  1
  O  213  1  0.95898900  0.75185200  0.79565900  1
  O  214  1  0.00214400  0.74276900  0.87076500  1
  O  241  1  0.78335800  0.54572100  0.49412800  1
  O  242  1  0.74065000  0.62089200  0.50310600  1
  O  269  1  0.28345700  0.95076000  0.50231700  1
  O  270  1  0.24071100  0.87561700  0.49326100  1
  O  297  1  0.03549500  0.75046500  0.29851100  1
  O  298  1  0.99168400  0.74219000  0.37277900  1
  O  325  1  0.53548900  0.74592600  0.69799600  1
  O  326  1  0.49188600  0.75437900  0.62374100  1
  O  353  1  0.20826700  0.44843600  0.50068700  1
  O  354  1  0.25093000  0.37415600  0.49205600  1
  O  381  1  0.70842200  0.04803100  0.49576300  1
  O  382  1  0.75089200  0.12230500  0.50450500  1
  O  409  1  0.95813800  0.24565700  0.69928500  1
  O  410  1  0.00099400  0.25439900  0.62497300  1
  O  437  1  0.45798300  0.25088200  0.29718000  1
  O  438  1  0.50072600  0.24198600  0.37147200  1
  O  461  1  0.90027900  0.95704200  0.03350500  1
  O  462  1  0.08984400  0.03417900  0.96771900  1
  O  475  1  0.40053800  0.53954900  0.96291200  1
  O  476  1  0.59009000  0.46237400  0.02871600  1
  O  489  1  0.15119500  0.21220100  0.70775500  1
  O  490  1  0.33900900  0.27851600  0.78503800  1
  O  503  1  0.65101400  0.28428500  0.28871700  1
  O  504  1  0.83910000  0.21797200  0.21152200  1
  O  517  1  0.10171400  0.54631300  0.01643400  1
  O  518  1  0.89204800  0.45590000  0.98373200  1
  O  531  1  0.60163100  0.95015700  0.98000400  1
  O  532  1  0.39179400  0.04049000  0.01273500  1
  O  545  1  0.85264400  0.26594500  0.70137500  1
  O  546  1  0.64132600  0.23369400  0.79140400  1
  O  559  1  0.35249600  0.23057600  0.29511700  1
  O  560  1  0.14133100  0.26280800  0.20502800  1
  O  573  1  0.84218600  0.78361200  0.28953100  1
  O  574  1  0.65379000  0.71737200  0.21237100  1
  O  587  1  0.34206400  0.71278000  0.70683600  1
  O  588  1  0.15350400  0.77901800  0.78399300  1
  O  601  1  0.14123500  0.73038200  0.29661400  1
  O  602  1  0.35219700  0.76275300  0.20650800  1
  O  615  1  0.64121200  0.76603300  0.69988300  1
  O  616  1  0.85197400  0.73367700  0.79006200  1
  O  629  1  0.40161500  0.45703900  0.53385800  1
  O  630  1  0.58858700  0.53420000  0.46709700  1
  O  643  1  0.90187000  0.03955500  0.46257500  1
  O  644  1  0.08881200  0.96235100  0.52935600  1
  O  657  1  0.60273500  0.04610300  0.51593100  1
  O  658  1  0.39037700  0.95628300  0.48404700  1
  O  671  1  0.10247100  0.45033600  0.48056000  1
  O  672  1  0.89023400  0.54017400  0.51241300  1
  O  685  1  0.46548000  0.19498500  0.86196100  1
  O  686  1  0.34859400  0.14315600  0.96265300  1
  O  699  1  0.96552700  0.30159400  0.13462700  1
  O  700  1  0.84870800  0.35330400  0.03384000  1
  O  713  1  0.71551000  0.38524800  0.94492600  1
  O  714  1  0.59809600  0.28426000  0.89381400  1
  O  727  1  0.21532400  0.11132600  0.05143500  1
  O  728  1  0.09794800  0.21224900  0.10262500  1
  O  741  1  0.52932200  0.80170800  0.13588300  1
  O  742  1  0.64243000  0.85127800  0.03345200  1
  O  755  1  0.02912300  0.69466000  0.86052200  1
  O  756  1  0.14231200  0.64520800  0.96301700  1
  O  769  1  0.27956500  0.61173500  0.05179200  1
  O  770  1  0.39367800  0.71285500  0.10368400  1
  O  783  1  0.77977600  0.88467500  0.94477200  1
  O  784  1  0.89381600  0.78360200  0.89284500  1
  O  797  1  0.96367400  0.69520900  0.36189700  1
  O  798  1  0.84943900  0.64276000  0.46267900  1
  O  811  1  0.46396800  0.80135500  0.63464300  1
  O  812  1  0.34958100  0.85369300  0.53378800  1
  O  825  1  0.21377200  0.88600000  0.44514100  1
  O  826  1  0.10067300  0.78373300  0.39518200  1
  O  839  1  0.71370200  0.61056400  0.55121900  1
  O  840  1  0.60083000  0.71279100  0.60126500  1
  O  853  1  0.03085100  0.30137800  0.63593900  1
  O  854  1  0.14170900  0.35176500  0.53357000  1
  O  867  1  0.53050200  0.19500800  0.36048300  1
  O  868  1  0.64156300  0.14472500  0.46290500  1
  O  881  1  0.78019200  0.11118800  0.55156100  1
  O  882  1  0.89090800  0.21334200  0.60251300  1
  O  895  1  0.28040100  0.38526500  0.44499600  1
  O  896  1  0.39076600  0.28311000  0.39401800  1
