# generated using pymatgen
data_H32C55(N2O3)4
_symmetry_space_group_name_H-M   'P 1'
_cell_length_a   38.52300000
_cell_length_b   48.19620000
_cell_length_c   48.19620000
_cell_angle_alpha   90.00000000
_cell_angle_beta   90.00130000
_cell_angle_gamma   90.00000000
_symmetry_Int_Tables_number   1
_chemical_formula_structural   H32C55(N2O3)4
_chemical_formula_sum   'H256 C440 N64 O96'
_cell_volume   89484.06330788
_cell_formula_units_Z   8
loop_
 _symmetry_equiv_pos_site_id
 _symmetry_equiv_pos_as_xyz
  1  'x, y, z'
loop_
 _atom_site_type_symbol
 _atom_site_label
 _atom_site_symmetry_multiplicity
 _atom_site_fract_x
 _atom_site_fract_y
 _atom_site_fract_z
 _atom_site_occupancy
  H  25  1  0.09231700  0.22680600  0.17281300  1
  H  26  1  0.03225200  0.22897900  0.18351900  1
  H  27  1  0.90966100  0.21742400  0.15952800  1
  H  28  1  0.86495200  0.20771800  0.12786200  1
  H  29  1  0.93882000  0.19248600  0.06529400  1
  H  30  1  0.06905800  0.19686500  0.09291500  1
  H  31  1  0.99019700  0.25196800  0.08512500  1
  H  32  1  0.03626300  0.25456800  0.00593800  1
  H  33  1  0.04158000  0.20561500  0.00613100  1
  H  34  1  0.98707900  0.15576500  0.13518700  1
  H  35  1  0.01976000  0.11432700  0.04752300  1
  H  36  1  0.00575100  0.08538000  0.08580100  1
  H  39  1  0.97359700  0.20283000  0.17039400  1
  H  40  1  0.97309800  0.23815400  0.16000900  1
  H  42  1  0.00649700  0.16236600  0.02601600  1
  H  43  1  0.04928000  0.16374900  0.03958500  1
  H  76  1  0.10956900  0.77760300  0.64166700  1
  H  77  1  0.05055900  0.77294700  0.62836000  1
  H  78  1  0.92627900  0.77551000  0.64783000  1
  H  79  1  0.87851100  0.78227600  0.67780600  1
  H  80  1  0.94611200  0.81004600  0.74075600  1
  H  81  1  0.07895600  0.80759700  0.71993200  1
  H  82  1  0.00043500  0.75038900  0.72487400  1
  H  83  1  0.04107900  0.74947200  0.80593800  1
  H  84  1  0.04601100  0.79844900  0.80507700  1
  H  85  1  0.99698300  0.84578300  0.67357400  1
  H  86  1  0.02433800  0.88886700  0.76164800  1
  H  87  1  0.01056600  0.91708100  0.72277300  1
  H  90  1  0.98908300  0.79576000  0.63830100  1
  H  91  1  0.99110000  0.76091500  0.65009000  1
  H  93  1  0.01189100  0.84098200  0.78331100  1
  H  94  1  0.05525900  0.83995700  0.77096100  1
  H  127  1  0.10394500  0.73404800  0.12893200  1
  H  128  1  0.04419500  0.72265500  0.13264800  1
  H  129  1  0.92080700  0.74696400  0.12955200  1
  H  130  1  0.87546600  0.77877800  0.12349700  1
  H  131  1  0.94735800  0.83977600  0.09851600  1
  H  132  1  0.07801400  0.81391900  0.10042100  1
  H  133  1  0.00047700  0.82082000  0.15707500  1
  H  134  1  0.04304300  0.90126000  0.15853900  1
  H  135  1  0.04808400  0.90060500  0.10952500  1
  H  136  1  0.99450300  0.77056500  0.06118300  1
  H  137  1  0.02512700  0.85826700  0.01880800  1
  H  138  1  0.01029500  0.81988500  0.99027800  1
  H  141  1  0.98341100  0.73547700  0.10940900  1
  H  142  1  0.98571400  0.74597800  0.14464200  1
  H  144  1  0.01325400  0.87982100  0.06695400  1
  H  145  1  0.05622700  0.86659600  0.06768200  1
  H  178  1  0.10922800  0.26488000  0.68087800  1
  H  179  1  0.05020000  0.27818200  0.67620400  1
  H  180  1  0.92585100  0.25881100  0.67936900  1
  H  181  1  0.87812400  0.22886900  0.68642100  1
  H  182  1  0.94588300  0.16601400  0.71415100  1
  H  183  1  0.07862500  0.18690100  0.71160100  1
  H  184  1  0.00021200  0.18202000  0.65425100  1
  H  185  1  0.04080100  0.10094500  0.65318300  1
  H  186  1  0.04559100  0.10166800  0.70217300  1
  H  187  1  0.99686600  0.23319300  0.74964800  1
  H  188  1  0.02405500  0.14505400  0.79268400  1
  H  189  1  0.01040400  0.18395100  0.82092600  1
  H  192  1  0.98878000  0.26843400  0.69928700  1
  H  193  1  0.99064600  0.25642100  0.66451500  1
  H  195  1  0.01145200  0.12343400  0.74476500  1
  H  196  1  0.05486600  0.13568100  0.74374900  1
  H  229  1  0.59840300  0.74864400  0.66137900  1
  H  230  1  0.53893500  0.75387300  0.67319400  1
  H  231  1  0.41645500  0.72871300  0.66292100  1
  H  232  1  0.37097000  0.70547700  0.64008700  1
  H  233  1  0.43914000  0.68303600  0.57548900  1
  H  234  1  0.57105300  0.69742000  0.59410500  1
  H  235  1  0.48595600  0.75372600  0.58419800  1
  H  236  1  0.52809700  0.75381700  0.50366800  1
  H  237  1  0.53719500  0.70535900  0.50649000  1
  H  238  1  0.49334600  0.66161900  0.64043500  1
  H  239  1  0.52641700  0.61603000  0.55478600  1
  H  240  1  0.51433400  0.58896400  0.59489300  1
  H  243  1  0.48167000  0.72429200  0.67136500  1
  H  244  1  0.47697900  0.75456600  0.65075100  1
  H  246  1  0.50833000  0.66130100  0.53062800  1
  H  247  1  0.55134000  0.66666667  0.54261100  1
  H  280  1  0.62387900  0.26781800  0.15820900  1
  H  281  1  0.56738000  0.25711400  0.14194700  1
  H  282  1  0.44169400  0.26349800  0.14617000  1
  H  283  1  0.38921600  0.27695800  0.16773500  1
  H  284  1  0.44527900  0.31414900  0.23306400  1
  H  285  1  0.58128600  0.31341500  0.22449700  1
  H  286  1  0.50284200  0.24936200  0.22747500  1
  H  287  1  0.53605300  0.25122100  0.31057000  1
  H  288  1  0.53978900  0.30019000  0.30868400  1
  H  289  1  0.50394500  0.34259100  0.17280900  1
  H  290  1  0.52140200  0.38902700  0.26089900  1
  H  291  1  0.51027400  0.41569700  0.22042100  1
  H  294  1  0.50552100  0.27955700  0.14049900  1
  H  295  1  0.50477100  0.24858600  0.16044600  1
  H  297  1  0.50768300  0.34195500  0.28334100  1
  H  298  1  0.55215800  0.34061400  0.27389100  1
  H  331  1  0.59847800  0.24566900  0.65266800  1
  H  332  1  0.53901000  0.23391100  0.65804700  1
  H  333  1  0.41645200  0.24423100  0.63309100  1
  H  334  1  0.37092100  0.26710000  0.60994300  1
  H  335  1  0.43910900  0.33163400  0.58736000  1
  H  336  1  0.57103200  0.31289800  0.60141300  1
  H  337  1  0.48628000  0.32291200  0.65793700  1
  H  338  1  0.52827100  0.40349500  0.65776500  1
  H  339  1  0.53704500  0.40063300  0.60927400  1
  H  340  1  0.49345800  0.26653400  0.56588800  1
  H  341  1  0.52571700  0.35223500  0.52004200  1
  H  342  1  0.51379600  0.31203700  0.49309000  1
  H  345  1  0.48164900  0.23574100  0.62858100  1
  H  346  1  0.47708100  0.25639800  0.65883700  1
  H  348  1  0.50784400  0.37640300  0.56538000  1
  H  349  1  0.55094600  0.36453300  0.57059700  1
  H  382  1  0.60172800  0.75656000  0.16014200  1
  H  383  1  0.54236900  0.76842400  0.15388700  1
  H  384  1  0.41916700  0.75842300  0.17737500  1
  H  385  1  0.37321300  0.73588800  0.20035600  1
  H  386  1  0.44080600  0.67130800  0.22394300  1
  H  387  1  0.57294300  0.68947600  0.21107300  1
  H  388  1  0.48851300  0.68000000  0.15342200  1
  H  389  1  0.52996600  0.59925100  0.15323900  1
  H  390  1  0.53854800  0.60178800  0.20177600  1
  H  391  1  0.49502600  0.73569900  0.24584200  1
  H  392  1  0.52667400  0.64964100  0.29131100  1
  H  393  1  0.51444500  0.68965400  0.31846400  1
  H  396  1  0.48434600  0.76679100  0.18247600  1
  H  397  1  0.48027600  0.74593100  0.15232100  1
  H  399  1  0.50924800  0.62580900  0.24570700  1
  H  400  1  0.55240700  0.63766300  0.24077600  1
  H  415  1  0.01622900  0.97910000  0.21755300  1
  H  416  1  0.02585700  0.93198500  0.23114700  1
  H  423  1  0.92107200  0.04499200  0.15448300  1
  H  424  1  0.02915500  0.05107900  0.14706900  1
  H  425  1  0.96447500  0.90442900  0.16420200  1
  H  426  1  0.95645400  0.95144300  0.14955800  1
  H  434  1  0.95507500  0.07456300  0.11856600  1
  H  436  1  0.00328700  0.88380500  0.22694100  1
  H  443  1  0.01891200  0.02410600  0.59230700  1
  H  444  1  0.02698700  0.07162100  0.57949700  1
  H  451  1  0.92571600  0.95482700  0.65343800  1
  H  452  1  0.03387900  0.95163800  0.66193300  1
  H  453  1  0.96354500  0.09674400  0.64616400  1
  H  454  1  0.95703500  0.04932300  0.66004900  1
  H  462  1  0.95990100  0.92562500  0.68906800  1
  H  464  1  0.00237100  0.11914900  0.58417900  1
  H  471  1  0.01817700  0.68908000  0.88317200  1
  H  472  1  0.02653200  0.67603500  0.83575600  1
  H  479  1  0.92469100  0.75114100  0.95158600  1
  H  480  1  0.03288500  0.75888000  0.95554700  1
  H  481  1  0.96369900  0.74284300  0.81004600  1
  H  482  1  0.95693600  0.75696300  0.85736800  1
  H  490  1  0.95936100  0.78695200  0.98069500  1
  H  492  1  0.00232100  0.68058300  0.78810000  1
  H  499  1  0.01622300  0.31479500  0.92846000  1
  H  500  1  0.02259900  0.32760500  0.97616100  1
  H  507  1  0.92462600  0.25362600  0.85758100  1
  H  508  1  0.03283100  0.24501300  0.85604400  1
  H  509  1  0.95833600  0.26089200  0.99979200  1
  H  510  1  0.95352300  0.24702600  0.95226500  1
  H  518  1  0.95949800  0.21766700  0.82923900  1
  H  520  1  0.99625300  0.32287600  0.02318700  1
  H  527  1  0.51302800  0.48062900  0.71996700  1
  H  528  1  0.51793200  0.43264000  0.73204500  1
  H  535  1  0.42276800  0.55465600  0.66264100  1
  H  536  1  0.53068500  0.55421000  0.65182500  1
  H  537  1  0.45257600  0.41126700  0.66523900  1
  H  538  1  0.44900900  0.45916900  0.65218900  1
  H  546  1  0.45750000  0.58362900  0.62717600  1
  H  548  1  0.48893300  0.38670300  0.72709600  1
  H  555  1  0.51520600  0.52261000  0.09122800  1
  H  556  1  0.51979000  0.57059900  0.07903300  1
  H  563  1  0.42591700  0.44819700  0.14902200  1
  H  564  1  0.53373500  0.44998000  0.16046700  1
  H  565  1  0.45407900  0.59183700  0.14566200  1
  H  566  1  0.45078700  0.54394400  0.15880800  1
  H  574  1  0.45995300  0.41994200  0.18468100  1
  H  576  1  0.49056100  0.61654100  0.08397300  1
  H  583  1  0.52025200  0.18735600  0.38595100  1
  H  584  1  0.52874100  0.17567200  0.33822100  1
  H  591  1  0.42507800  0.24318100  0.45730700  1
  H  592  1  0.53266300  0.25570700  0.45936800  1
  H  593  1  0.46134200  0.24031800  0.31442300  1
  H  594  1  0.45431800  0.25314900  0.36215300  1
  H  602  1  0.45816000  0.27924400  0.48713800  1
  H  604  1  0.50312700  0.18011300  0.29107800  1
  H  611  1  0.51253200  0.81588800  0.42656400  1
  H  612  1  0.51718900  0.82804900  0.47454900  1
  H  619  1  0.42318600  0.75756600  0.35246900  1
  H  620  1  0.53123500  0.74758000  0.35327200  1
  H  621  1  0.45236000  0.76089900  0.49587700  1
  H  622  1  0.44907400  0.74776300  0.44799000  1
  H  630  1  0.45840900  0.72212200  0.32390100  1
  H  632  1  0.48819900  0.82294700  0.52047500  1
  H  639  1  0.80830300  0.27993100  0.12582600  1
  H  640  1  0.84368700  0.25709300  0.09140700  1
  H  647  1  0.72020300  0.24917300  0.21712600  1
  H  648  1  0.68092000  0.29853600  0.15270300  1
  H  649  1  0.78318800  0.18471000  0.09979400  1
  H  650  1  0.74793200  0.20725300  0.13389100  1
  H  658  1  0.65720400  0.26002500  0.20970900  1
  H  660  1  0.82153400  0.19867200  0.05727900  1
  H  667  1  0.79584100  0.71428300  0.68210000  1
  H  668  1  0.84313700  0.72549900  0.71227900  1
  H  675  1  0.70291700  0.76769400  0.60572700  1
  H  676  1  0.66891100  0.71371400  0.66825000  1
  H  677  1  0.80975200  0.80879400  0.71493200  1
  H  678  1  0.76199600  0.79750500  0.68536500  1
  H  686  1  0.63953700  0.75853900  0.61976800  1
  H  688  1  0.87094100  0.75867400  0.74178400  1
  H  695  1  0.80070800  0.78087100  0.18577400  1
  H  696  1  0.84237600  0.81367200  0.16807400  1
  H  703  1  0.70551300  0.69726500  0.14345700  1
  H  704  1  0.67187300  0.76376800  0.19257600  1
  H  705  1  0.79799800  0.80681900  0.08851200  1
  H  706  1  0.75606700  0.77468400  0.10601500  1
  H  714  1  0.64217400  0.71271200  0.15110700  1
  H  716  1  0.83166800  0.85013800  0.11244000  1
  H  723  1  0.79548200  0.22417100  0.61831900  1
  H  724  1  0.84257100  0.19384700  0.62973700  1
  H  731  1  0.70316100  0.30149900  0.67123800  1
  H  732  1  0.66869800  0.23854400  0.61795300  1
  H  733  1  0.80970200  0.19248300  0.71319000  1
  H  734  1  0.76212600  0.22216100  0.70170600  1
  H  742  1  0.63963300  0.28735500  0.66241300  1
  H  744  1  0.87018300  0.16432400  0.66325300  1
  H  751  1  0.22656500  0.69848100  0.14145700  1
  H  752  1  0.17754800  0.71312500  0.11518200  1
  H  759  1  0.28900900  0.72475000  0.23669200  1
  H  760  1  0.34198000  0.68663100  0.17094100  1
  H  761  1  0.20650700  0.79675000  0.12667300  1
  H  762  1  0.25569900  0.78202900  0.15341700  1
  H  770  1  0.32529100  0.68127800  0.24042700  1
  H  772  1  0.14759300  0.74965900  0.09189600  1
  H  779  1  0.22568500  0.30204700  0.67132100  1
  H  780  1  0.17799800  0.28572200  0.69821400  1
  H  787  1  0.28730300  0.27892500  0.57458600  1
  H  788  1  0.34050500  0.31647700  0.64055100  1
  H  789  1  0.20937100  0.20305100  0.68420300  1
  H  790  1  0.25726900  0.21945100  0.65689500  1
  H  798  1  0.32323800  0.32291200  0.57136000  1
  H  800  1  0.15040100  0.24788700  0.72137300  1
  H  807  1  0.21299500  0.24231600  0.21012600  1
  H  808  1  0.16374900  0.21611900  0.19525800  1
  H  815  1  0.29645400  0.32888900  0.17513900  1
  H  816  1  0.33941800  0.25773200  0.21182000  1
  H  817  1  0.19701200  0.22276200  0.11210300  1
  H  818  1  0.24629400  0.24933700  0.12695700  1
  H  826  1  0.35860600  0.32278500  0.18289900  1
  H  828  1  0.13669200  0.19000500  0.15867900  1
  H  835  1  0.22559500  0.76669400  0.60492600  1
  H  836  1  0.17807800  0.79382200  0.62117700  1
  H  843  1  0.28738900  0.67024400  0.62843300  1
  H  844  1  0.34054700  0.73602300  0.59051400  1
  H  845  1  0.21000000  0.78065300  0.70385400  1
  H  846  1  0.25770900  0.75307400  0.68753000  1
  H  854  1  0.32331800  0.66676900  0.58446300  1
  H  856  1  0.15095500  0.81755000  0.65886400  1
  C  1  1  0.00076200  0.16524600  0.09354900  1
  C  2  1  0.01097400  0.15264200  0.06818700  1
  C  3  1  0.01918700  0.19940700  0.04593000  1
  C  4  1  0.00569700  0.21285700  0.06981700  1
  C  5  1  0.00096500  0.24211000  0.06840900  1
  C  6  1  0.00956300  0.25786500  0.04445100  1
  C  7  1  0.02678600  0.24398600  0.02266300  1
  C  8  1  0.03053600  0.21512100  0.02295900  1
  C  9  1  0.01216500  0.12346500  0.06571900  1
  C  10  1  0.00364000  0.10642400  0.08820400  1
  C  11  1  0.99447800  0.11807200  0.11401400  1
  C  12  1  0.99365700  0.14733800  0.11644200  1
  C  13  1  0.02456700  0.20534000  0.11757300  1
  C  14  1  0.01435800  0.21472900  0.14431500  1
  C  15  1  0.95131400  0.21065200  0.13151700  1
  C  16  1  0.96018900  0.20227600  0.10421300  1
  C  17  1  0.91620200  0.21259400  0.13950300  1
  C  18  1  0.88962600  0.20750400  0.12039400  1
  C  19  1  0.89692000  0.20166100  0.09227400  1
  C  20  1  0.93250400  0.19811100  0.08511700  1
  C  21  1  0.06084700  0.20361200  0.11193900  1
  C  22  1  0.08614800  0.21096900  0.13189600  1
  C  23  1  0.07490000  0.22039300  0.15810300  1
  C  24  1  0.03952200  0.22201100  0.16430500  1
  C  37  1  0.99772800  0.19661200  0.09616000  1
  C  38  1  0.97764900  0.21689900  0.15286400  1
  C  41  1  0.02212800  0.16893500  0.04381000  1
  C  44  1  0.98917400  0.10015200  0.13704800  1
  C  45  1  0.00270800  0.28697900  0.04303400  1
  C  46  1  0.87008400  0.19801600  0.07186000  1
  C  47  1  0.12214400  0.21183600  0.12550100  1
  C  52  1  0.00936400  0.83709100  0.71564200  1
  C  53  1  0.01794500  0.85016100  0.74115700  1
  C  54  1  0.02611300  0.80383100  0.76432500  1
  C  55  1  0.01439600  0.78988400  0.74013200  1
  C  56  1  0.00997500  0.76061000  0.74184300  1
  C  57  1  0.01694800  0.74532900  0.76644100  1
  C  58  1  0.03264000  0.75969500  0.78864800  1
  C  59  1  0.03619300  0.78857700  0.78797600  1
  C  60  1  0.01793000  0.87937300  0.74334400  1
  C  61  1  0.00954600  0.89597100  0.72049900  1
  C  62  1  0.00180400  0.88386100  0.69460100  1
  C  63  1  0.00247300  0.85457200  0.69238500  1
  C  64  1  0.03676200  0.79747000  0.69335200  1
  C  65  1  0.02907800  0.78714500  0.66641900  1
  C  66  1  0.96504800  0.78816800  0.67649900  1
  C  67  1  0.97125000  0.79872500  0.70354900  1
  C  68  1  0.93090000  0.78268900  0.66748700  1
  C  69  1  0.90271400  0.78645700  0.68536500  1
  C  70  1  0.90763100  0.79572900  0.71286300  1
  C  71  1  0.94195100  0.80275900  0.72111200  1
  C  72  1  0.07248800  0.80042200  0.70064200  1
  C  73  1  0.09959400  0.79362700  0.68201400  1
  C  74  1  0.09078400  0.78362900  0.65543700  1
  C  75  1  0.05603100  0.78058500  0.64770200  1
  C  88  1  0.00785600  0.80565900  0.71325000  1
  C  89  1  0.99325000  0.78263700  0.65652900  1
  C  92  1  0.02841700  0.83436300  0.76605900  1
  C  95  1  0.99618300  0.90147600  0.67138000  1
  C  96  1  0.00996300  0.71623100  0.76810900  1
  C  97  1  0.87818100  0.79777500  0.73091600  1
  C  98  1  0.13510100  0.79351300  0.69002800  1
  C  103  1  0.00833200  0.81226800  0.07022900  1
  C  104  1  0.01790700  0.83765400  0.05735400  1
  C  105  1  0.02716400  0.86021100  0.10387400  1
  C  106  1  0.01476800  0.83614100  0.11765900  1
  C  107  1  0.01056300  0.83765600  0.14696000  1
  C  108  1  0.01823600  0.86201000  0.16237500  1
  C  109  1  0.03439100  0.88411000  0.14818000  1
  C  110  1  0.03793100  0.88357000  0.11929200  1
  C  111  1  0.01801900  0.84005400  0.02815600  1
  C  112  1  0.00895100  0.81751300  0.01136600  1
  C  113  1  0.00037000  0.79168900  0.02326700  1
  C  114  1  0.00066600  0.78931000  0.05255000  1
  C  115  1  0.03432500  0.78861200  0.10965000  1
  C  116  1  0.02497800  0.76174500  0.11924100  1
  C  117  1  0.96156500  0.77429600  0.11819500  1
  C  118  1  0.96955000  0.80131900  0.10851300  1
  C  119  1  0.92679100  0.76666200  0.12316900  1
  C  120  1  0.89983500  0.78587400  0.11990800  1
  C  121  1  0.90636900  0.81357700  0.11185000  1
  C  122  1  0.94148100  0.82024300  0.10531000  1
  C  123  1  0.07043900  0.79470600  0.10709900  1
  C  124  1  0.09645200  0.77505100  0.11373200  1
  C  125  1  0.08602400  0.74857200  0.12299800  1
  C  126  1  0.05082100  0.74195100  0.12550200  1
  C  139  1  0.00669100  0.80967400  0.10164700  1
  C  140  1  0.98850700  0.75306800  0.12317500  1
  C  143  1  0.02927600  0.86218300  0.07334500  1
  C  146  1  0.99448300  0.76862700  0.00548400  1
  C  147  1  0.01119800  0.86362500  0.19143500  1
  C  148  1  0.87959800  0.83441500  0.11004900  1
  C  149  1  0.13234500  0.78206800  0.11448100  1
  C  154  1  0.00915100  0.19111000  0.74094300  1
  C  155  1  0.01767600  0.16557100  0.75399200  1
  C  156  1  0.02574400  0.14242500  0.70762900  1
  C  157  1  0.01407400  0.16664900  0.69371700  1
  C  158  1  0.00970800  0.16501400  0.66443500  1
  C  159  1  0.01672000  0.14046400  0.64909300  1
  C  160  1  0.03231900  0.11820100  0.66343700  1
  C  161  1  0.03580000  0.11879400  0.69232900  1
  C  162  1  0.01770100  0.16337700  0.78320100  1
  C  163  1  0.00939900  0.18623200  0.79981500  1
  C  164  1  0.00172900  0.21214800  0.78771400  1
  C  165  1  0.00234900  0.21437800  0.75843000  1
  C  166  1  0.03643700  0.21340100  0.70127000  1
  C  167  1  0.02873000  0.24025600  0.69075900  1
  C  168  1  0.96469000  0.23019500  0.69200200  1
  C  169  1  0.97093300  0.20318800  0.70264600  1
  C  170  1  0.93050800  0.23917900  0.68660200  1
  C  171  1  0.90234000  0.22131200  0.69053000  1
  C  172  1  0.90729600  0.19383200  0.69985600  1
  C  173  1  0.94166500  0.18562200  0.70678700  1
  C  174  1  0.07216000  0.20613600  0.70427900  1
  C  175  1  0.09926300  0.22468800  0.69727700  1
  C  176  1  0.09044000  0.25117100  0.68703700  1
  C  177  1  0.05568100  0.25890400  0.68399500  1
  C  190  1  0.00756000  0.19351100  0.70952100  1
  C  191  1  0.99288400  0.25012200  0.68627000  1
  C  194  1  0.02804200  0.14065300  0.73816300  1
  C  197  1  0.99606400  0.23534200  0.80534500  1
  C  198  1  0.00989300  0.13893800  0.61995800  1
  C  199  1  0.87790800  0.17571800  0.70204900  1
  C  200  1  0.13477900  0.21661700  0.69733600  1
  C  205  1  0.50576000  0.66889700  0.59809400  1
  C  206  1  0.51576400  0.65516200  0.57324600  1
  C  207  1  0.51745700  0.70047700  0.54733700  1
  C  208  1  0.50378200  0.71462900  0.57071400  1
  C  209  1  0.49636500  0.74340100  0.56763100  1
  C  210  1  0.50289100  0.75827800  0.54270400  1
  C  211  1  0.51980100  0.74383100  0.52111700  1
  C  212  1  0.52591900  0.71526000  0.52298700  1
  C  213  1  0.51908900  0.62600200  0.57261100  1
  C  214  1  0.51179500  0.61008400  0.59615400  1
  C  215  1  0.50220100  0.62297300  0.62125800  1
  C  216  1  0.50041000  0.65228600  0.62221600  1
  C  217  1  0.52788900  0.71262100  0.61696100  1
  C  218  1  0.51906600  0.72896200  0.64046100  1
  C  219  1  0.45564400  0.71860100  0.63366600  1
  C  220  1  0.46280400  0.70445800  0.60850100  1
  C  221  1  0.42152400  0.71947400  0.64421900  1
  C  222  1  0.39433000  0.70626400  0.63023100  1
  C  223  1  0.39959200  0.69350300  0.60419000  1
  C  224  1  0.43416100  0.69299500  0.59380600  1
  C  225  1  0.56385000  0.70934500  0.61069400  1
  C  226  1  0.59009900  0.72276300  0.62625100  1
  C  227  1  0.58018300  0.73932400  0.64902900  1
  C  228  1  0.54518800  0.74220800  0.65615300  1
  C  241  1  0.49991400  0.70011800  0.59856500  1
  C  242  1  0.48295500  0.73237600  0.65016000  1
  C  245  1  0.52391800  0.67027500  0.54736400  1
  C  248  1  0.49561500  0.60599600  0.64471400  1
  C  249  1  0.49497600  0.78724500  0.54057300  1
  C  250  1  0.37224500  0.67909100  0.59003500  1
  C  251  1  0.62600200  0.71842800  0.62120400  1
  C  256  1  0.51250400  0.33558900  0.21578200  1
  C  257  1  0.51800900  0.34959000  0.24136700  1
  C  258  1  0.52373800  0.30419000  0.26672200  1
  C  259  1  0.51451800  0.28942500  0.24235200  1
  C  260  1  0.51026900  0.26017400  0.24473800  1
  C  261  1  0.51541600  0.24553200  0.27001200  1
  C  262  1  0.52858800  0.26080700  0.29266600  1
  C  263  1  0.53157000  0.28972800  0.29139600  1
  C  264  1  0.51722000  0.37883900  0.24255600  1
  C  265  1  0.51044500  0.39451300  0.21875300  1
  C  266  1  0.50537500  0.38142200  0.19290500  1
  C  267  1  0.50752700  0.35212500  0.19156500  1
  C  268  1  0.54352400  0.29493200  0.19815400  1
  C  269  1  0.54017300  0.27863600  0.17372800  1
  C  270  1  0.47521400  0.28118200  0.17641400  1
  C  271  1  0.47687600  0.29618900  0.20176900  1
  C  272  1  0.44296600  0.27452800  0.16431100  1
  C  273  1  0.41204400  0.28269900  0.17695900  1
  C  274  1  0.41241600  0.29753000  0.20221500  1
  C  275  1  0.44487100  0.30360100  0.21463300  1
  C  276  1  0.57785900  0.30152800  0.20713600  1
  C  277  1  0.60762600  0.29146100  0.19316500  1
  C  278  1  0.60304900  0.27500300  0.16926200  1
  C  279  1  0.56978600  0.26882800  0.15957400  1
  C  292  1  0.51169100  0.30407800  0.21448300  1
  C  293  1  0.50630000  0.27124100  0.16163200  1
  C  296  1  0.52591400  0.33476700  0.26746900  1
  C  299  1  0.49994800  0.39826800  0.16912500  1
  C  300  1  0.50959100  0.21620600  0.27165300  1
  C  301  1  0.38026600  0.30402600  0.21515700  1
  C  302  1  0.64194800  0.29853400  0.20125600  1
  C  307  1  0.50560400  0.30893900  0.57304800  1
  C  308  1  0.51540300  0.33379800  0.55924000  1
  C  309  1  0.51736600  0.35975300  0.60452200  1
  C  310  1  0.50383600  0.33636900  0.61875500  1
  C  311  1  0.49659600  0.33947900  0.64755400  1
  C  312  1  0.50316100  0.36443600  0.66237700  1
  C  313  1  0.51994600  0.38602200  0.64783700  1
  C  314  1  0.52587200  0.38413000  0.61924100  1
  C  315  1  0.51852300  0.33440600  0.53006800  1
  C  316  1  0.51131700  0.31080300  0.51421200  1
  C  317  1  0.50195200  0.28567400  0.52716700  1
  C  318  1  0.50030800  0.28477200  0.55649300  1
  C  319  1  0.52789700  0.29010000  0.61674500  1
  C  320  1  0.51910000  0.26662300  0.63313000  1
  C  321  1  0.45564900  0.27344900  0.62289200  1
  C  322  1  0.46279600  0.29859800  0.60871600  1
  C  323  1  0.42151900  0.26292300  0.62383100  1
  C  324  1  0.39430900  0.27692000  0.61065100  1
  C  325  1  0.39954500  0.30297400  0.59790900  1
  C  326  1  0.43413800  0.31330700  0.59730400  1
  C  327  1  0.56385500  0.29632800  0.61337200  1
  C  328  1  0.59012700  0.28076300  0.62674900  1
  C  329  1  0.58024000  0.25802300  0.64337300  1
  C  330  1  0.54524500  0.25093100  0.64634700  1
  C  343  1  0.49990100  0.30850400  0.60428700  1
  C  344  1  0.48298600  0.25695400  0.63663400  1
  C  347  1  0.52357200  0.35971300  0.57428700  1
  C  350  1  0.49581200  0.26206900  0.51027800  1
  C  351  1  0.49545400  0.36658500  0.69137900  1
  C  352  1  0.37219000  0.31716200  0.58353600  1
  C  353  1  0.62602500  0.28575300  0.62231200  1
  C  358  1  0.50721300  0.69333700  0.23848500  1
  C  359  1  0.51682300  0.66836400  0.25217300  1
  C  360  1  0.51908400  0.64271100  0.20672200  1
  C  361  1  0.50579300  0.66623300  0.19257900  1
  C  362  1  0.49868900  0.66333500  0.16373700  1
  C  363  1  0.50512600  0.63843900  0.14878900  1
  C  364  1  0.52172400  0.61670200  0.16324700  1
  C  365  1  0.52754700  0.61840200  0.19187100  1
  C  366  1  0.51965500  0.66755500  0.28136200  1
  C  367  1  0.51225200  0.69104400  0.29733000  1
  C  368  1  0.50307800  0.71627300  0.28448400  1
  C  369  1  0.50176500  0.71739300  0.25516200  1
  C  370  1  0.53019400  0.71234300  0.19512200  1
  C  371  1  0.52180500  0.73581100  0.17859300  1
  C  372  1  0.45810000  0.72918900  0.18814600  1
  C  373  1  0.46491400  0.70409700  0.20252100  1
  C  374  1  0.42400600  0.73976400  0.18678000  1
  C  375  1  0.39655500  0.72598100  0.19989100  1
  C  376  1  0.40154400  0.70009100  0.21302400  1
  C  377  1  0.43603800  0.68957100  0.21381700  1
  C  378  1  0.56605900  0.70604100  0.19900000  1
  C  379  1  0.59266600  0.72158000  0.18603400  1
  C  380  1  0.58322200  0.74429800  0.16922200  1
  C  381  1  0.54830000  0.75142500  0.16571600  1
  C  394  1  0.50188700  0.69400700  0.20721200  1
  C  395  1  0.48576600  0.74551600  0.17459400  1
  C  398  1  0.52507300  0.64254100  0.23698700  1
  C  401  1  0.49647700  0.73967300  0.30152300  1
  C  402  1  0.49737000  0.63647000  0.11977800  1
  C  403  1  0.37408000  0.68623500  0.22759300  1
  C  404  1  0.62845000  0.71652600  0.19101100  1
  C  409  1  0.99700300  0.91350800  0.19853900  1
  C  410  1  0.97579300  0.91996500  0.17545800  1
  C  411  1  0.97070700  0.94767900  0.16707400  1
  C  412  1  0.98559200  0.96994000  0.18209900  1
  C  413  1  0.00529200  0.96356600  0.20601200  1
  C  414  1  0.01075400  0.93584400  0.21411700  1
  C  417  1  0.98193200  0.99799400  0.17274700  1
  C  418  1  0.94846900  0.01005800  0.16946800  1
  C  419  1  0.94529400  0.03691100  0.15778300  1
  C  420  1  0.97459900  0.05266300  0.15014700  1
  C  421  1  0.00767900  0.04074700  0.15409000  1
  C  422  1  0.01174300  0.01365600  0.16501600  1
  C  437  1  0.99692500  0.08891500  0.61205400  1
  C  438  1  0.97553300  0.08163000  0.63477600  1
  C  439  1  0.97137700  0.05368200  0.64271800  1
  C  440  1  0.98737800  0.03200900  0.62756100  1
  C  441  1  0.00718600  0.03919800  0.60394000  1
  C  442  1  0.01175300  0.06715200  0.59630300  1
  C  445  1  0.98477400  0.00374900  0.63652100  1
  C  446  1  0.95180700  0.99072600  0.63928800  1
  C  447  1  0.94962600  0.96361400  0.65051500  1
  C  448  1  0.97947900  0.94856700  0.65825500  1
  C  449  1  0.01206500  0.96147500  0.65487200  1
  C  450  1  0.01512400  0.98880000  0.64433100  1
  C  465  1  0.99682400  0.70864300  0.81816600  1
  C  466  1  0.97554900  0.73149400  0.82526000  1
  C  467  1  0.97122400  0.73956900  0.85315400  1
  C  468  1  0.98694200  0.72443500  0.87497900  1
  C  469  1  0.00665700  0.70070500  0.86797600  1
  C  470  1  0.01137100  0.69292200  0.84007500  1
  C  473  1  0.98412300  0.73351300  0.90319700  1
  C  474  1  0.95104100  0.73656100  0.91597600  1
  C  475  1  0.94866600  0.74799300  0.94299500  1
  C  476  1  0.97841700  0.75560800  0.95822400  1
  C  477  1  0.01112100  0.75186900  0.94560000  1
  C  478  1  0.01437600  0.74119600  0.91833700  1
  C  493  1  0.99192100  0.29505000  0.99274800  1
  C  494  1  0.97087300  0.27228700  0.98497100  1
  C  495  1  0.96772200  0.26434900  0.95694600  1
  C  496  1  0.98442600  0.27953900  0.93564200  1
  C  497  1  0.00400300  0.30314400  0.94328400  1
  C  498  1  0.00755500  0.31078800  0.97133700  1
  C  501  1  0.98255200  0.27066000  0.90732000  1
  C  502  1  0.94989900  0.26791500  0.89379400  1
  C  503  1  0.94833400  0.25657000  0.86670800  1
  C  504  1  0.97851600  0.24870200  0.85216800  1
  C  505  1  0.01080700  0.25214000  0.86552900  1
  C  506  1  0.01324200  0.26278800  0.89285700  1
  C  521  1  0.48659200  0.41718000  0.69932800  1
  C  522  1  0.46570800  0.42567900  0.67673600  1
  C  523  1  0.46330500  0.45389300  0.66928800  1
  C  524  1  0.48074900  0.47460200  0.68477100  1
  C  525  1  0.50032900  0.46622800  0.70811300  1
  C  526  1  0.50303100  0.43801200  0.71531100  1
  C  529  1  0.47947900  0.50313500  0.67661000  1
  C  530  1  0.44721300  0.51739400  0.67500100  1
  C  531  1  0.44623900  0.54492900  0.66475600  1
  C  532  1  0.47666300  0.55916300  0.65689900  1
  C  533  1  0.50858100  0.54497500  0.65911500  1
  C  534  1  0.51040100  0.51721300  0.66864900  1
  C  549  1  0.48820100  0.58597200  0.11163600  1
  C  550  1  0.46725500  0.57744200  0.13417600  1
  C  551  1  0.46503600  0.54923900  0.14168900  1
  C  552  1  0.48272700  0.52858600  0.12631400  1
  C  553  1  0.50229700  0.53698000  0.10297600  1
  C  554  1  0.50482800  0.56518800  0.09571900  1
  C  557  1  0.48188000  0.50011900  0.13469800  1
  C  558  1  0.44984200  0.48554300  0.13631600  1
  C  559  1  0.44925300  0.45813000  0.14689400  1
  C  560  1  0.47984000  0.44435500  0.15518900  1
  C  561  1  0.51152800  0.45886200  0.15295300  1
  C  562  1  0.51297100  0.48648700  0.14299500  1
  C  577  1  0.49675200  0.20740600  0.32160100  1
  C  578  1  0.47405700  0.22914900  0.32932300  1
  C  579  1  0.46962300  0.23645200  0.35742700  1
  C  580  1  0.48667800  0.22155100  0.37876500  1
  C  581  1  0.50774800  0.19879200  0.37110900  1
  C  582  1  0.51257100  0.19181500  0.34302600  1
  C  585  1  0.48401200  0.22993300  0.40718600  1
  C  586  1  0.45118700  0.23112000  0.42066000  1
  C  587  1  0.44894200  0.24141500  0.44813700  1
  C  588  1  0.47863600  0.24971900  0.46308700  1
  C  589  1  0.51109400  0.24804500  0.44963800  1
  C  590  1  0.51417300  0.23849800  0.42195800  1
  C  605  1  0.48607300  0.79518300  0.48998300  1
  C  606  1  0.46539700  0.77247400  0.48147200  1
  C  607  1  0.46316400  0.76496900  0.45326600  1
  C  608  1  0.48054600  0.78051800  0.43257400  1
  C  609  1  0.49987700  0.80398900  0.44095500  1
  C  610  1  0.50244700  0.81122800  0.46916700  1
  C  613  1  0.47951000  0.77226000  0.40406600  1
  C  614  1  0.44732400  0.77033900  0.38972200  1
  C  615  1  0.44659000  0.75992300  0.36224600  1
  C  616  1  0.47717400  0.75218000  0.34817100  1
  C  617  1  0.50899700  0.75470700  0.36242800  1
  C  618  1  0.51058800  0.76445300  0.39012300  1
  C  633  1  0.81724600  0.21856500  0.09295500  1
  C  634  1  0.78894100  0.20467900  0.10535300  1
  C  635  1  0.76843600  0.21787600  0.12553500  1
  C  636  1  0.77534100  0.24552800  0.13363300  1
  C  637  1  0.80314800  0.25973000  0.12076100  1
  C  638  1  0.82389700  0.24638300  0.10064300  1
  C  641  1  0.75255000  0.25873600  0.15288600  1
  C  642  1  0.75044400  0.24897000  0.18064700  1
  C  643  1  0.72261900  0.25767400  0.19775600  1
  C  644  1  0.69667100  0.27601200  0.18817600  1
  C  645  1  0.70024800  0.28659700  0.16094700  1
  C  646  1  0.72751300  0.27806600  0.14315700  1
  C  661  1  0.83158800  0.76839100  0.71623000  1
  C  662  1  0.80750100  0.78889900  0.70777800  1
  C  663  1  0.77941900  0.78225100  0.69030100  1
  C  664  1  0.77461200  0.75488400  0.68040600  1
  C  665  1  0.79864100  0.73433800  0.68871200  1
  C  666  1  0.82640900  0.74094700  0.70653400  1
  C  669  1  0.74490500  0.74806600  0.66396000  1
  C  670  1  0.73914500  0.76140500  0.63803700  1
  C  671  1  0.70752200  0.75700000  0.62370300  1
  C  672  1  0.68164100  0.73907700  0.63404600  1
  C  673  1  0.68812600  0.72540200  0.65942000  1
  C  674  1  0.71917700  0.72971300  0.67453800  1
  C  689  1  0.82504600  0.81222800  0.12638300  1
  C  690  1  0.79950900  0.80074200  0.10881900  1
  C  691  1  0.77497500  0.78177600  0.11914800  1
  C  692  1  0.77501400  0.77390800  0.14743700  1
  C  693  1  0.80054900  0.78554600  0.16506500  1
  C  694  1  0.82510400  0.80465700  0.15471600  1
  C  697  1  0.74729000  0.75709300  0.15781300  1
  C  698  1  0.74162900  0.73007000  0.14684900  1
  C  699  1  0.71022900  0.71597600  0.15277100  1
  C  700  1  0.68441100  0.72770700  0.16987300  1
  C  701  1  0.69107000  0.75401200  0.18163000  1
  C  702  1  0.72187400  0.76892400  0.17566800  1
  C  717  1  0.83125600  0.19055000  0.67271600  1
  C  718  1  0.80739700  0.19941300  0.69321700  1
  C  719  1  0.77942400  0.21695300  0.68645200  1
  C  720  1  0.77452100  0.22651400  0.65897700  1
  C  721  1  0.79836100  0.21781600  0.63844700  1
  C  722  1  0.82600400  0.19991400  0.64517200  1
  C  725  1  0.74486100  0.24298000  0.65205500  1
  C  726  1  0.73925400  0.26905000  0.66515300  1
  C  727  1  0.70766000  0.28341000  0.66070400  1
  C  728  1  0.68166700  0.27295700  0.64295300  1
  C  729  1  0.68799600  0.24743900  0.62950200  1
  C  730  1  0.71900900  0.23228600  0.63388300  1
  C  745  1  0.18673800  0.75644600  0.11855900  1
  C  746  1  0.21048600  0.77599100  0.12955800  1
  C  747  1  0.23966800  0.76734100  0.14499700  1
  C  748  1  0.24621300  0.73883500  0.14961800  1
  C  749  1  0.22322400  0.71925400  0.13790000  1
  C  750  1  0.19428400  0.72793900  0.12242400  1
  C  753  1  0.27268600  0.72951200  0.16814700  1
  C  754  1  0.26906200  0.73444600  0.19707800  1
  C  755  1  0.29234700  0.72167300  0.21584600  1
  C  756  1  0.31948400  0.70429200  0.20668300  1
  C  757  1  0.32308200  0.69981500  0.17790700  1
  C  758  1  0.30003600  0.71213900  0.15855500  1
  C  773  1  0.18857500  0.24271600  0.69363300  1
  C  774  1  0.21261700  0.22394900  0.68174100  1
  C  775  1  0.24099600  0.23358700  0.66593900  1
  C  776  1  0.24639100  0.26232600  0.66183300  1
  C  777  1  0.22312400  0.28113200  0.67443300  1
  C  778  1  0.19497200  0.27146300  0.69024900  1
  C  781  1  0.27216200  0.27261700  0.64319300  1
  C  782  1  0.26814900  0.26822900  0.61420300  1
  C  783  1  0.29082900  0.28170700  0.59545300  1
  C  784  1  0.31775500  0.29924400  0.60470500  1
  C  785  1  0.32167200  0.30326900  0.63351700  1
  C  786  1  0.29923600  0.29022400  0.65285000  1
  C  801  1  0.17516700  0.21724500  0.15215000  1
  C  802  1  0.19987100  0.22701800  0.13275100  1
  C  803  1  0.22891500  0.24249600  0.14149000  1
  C  804  1  0.23410200  0.24848900  0.16991100  1
  C  805  1  0.20999100  0.23824500  0.18941700  1
  C  806  1  0.18113400  0.22272700  0.18062800  1
  C  809  1  0.26303500  0.26448400  0.17895600  1
  C  810  1  0.26521500  0.29312100  0.17230900  1
  C  811  1  0.29466000  0.30847500  0.18083300  1
  C  812  1  0.32222500  0.29629700  0.19587600  1
  C  813  1  0.31921400  0.26778700  0.20249900  1
  C  814  1  0.29010900  0.25179600  0.19439600  1
  C  829  1  0.18892400  0.78966400  0.66418500  1
  C  830  1  0.21306500  0.77792700  0.68297100  1
  C  831  1  0.24133600  0.76197300  0.67337500  1
  C  832  1  0.24653700  0.75757900  0.64465500  1
  C  833  1  0.22315800  0.76999900  0.62582100  1
  C  834  1  0.19510500  0.78595000  0.63544800  1
  C  837  1  0.27228100  0.73888400  0.63443100  1
  C  838  1  0.26826300  0.70991700  0.63896000  1
  C  839  1  0.29090900  0.69109800  0.62554200  1
  C  840  1  0.31781000  0.70025900  0.60793200  1
  C  841  1  0.32173200  0.72905400  0.60377200  1
  C  842  1  0.29932000  0.74845100  0.61674300  1
  N  427  1  0.04521100  0.00152000  0.16671100  1
  N  428  1  0.91855700  0.99513500  0.17787200  1
  N  433  1  0.97055900  0.07622200  0.13452400  1
  N  435  1  0.00375900  0.88670300  0.20688800  1
  N  455  1  0.04807500  0.00186500  0.64312200  1
  N  456  1  0.92139400  0.00495600  0.63083400  1
  N  461  1  0.97611200  0.92468700  0.67351500  1
  N  463  1  0.00290200  0.11597200  0.60419300  1
  N  483  1  0.04746200  0.73971400  0.90552100  1
  N  484  1  0.92071100  0.72817600  0.90159700  1
  N  489  1  0.97502900  0.77107400  0.98196900  1
  N  491  1  0.00289600  0.70061400  0.79116400  1
  N  511  1  0.04587500  0.26401900  0.90641500  1
  N  512  1  0.91916900  0.27648500  0.90751400  1
  N  517  1  0.97566500  0.23325700  0.82837400  1
  N  519  1  0.99685500  0.30287700  0.01995700  1
  N  539  1  0.54257100  0.50291300  0.66874800  1
  N  540  1  0.41630400  0.50395700  0.68359900  1
  N  545  1  0.47414500  0.58361300  0.64247700  1
  N  547  1  0.49020000  0.38986900  0.70709600  1
  N  567  1  0.54490000  0.50112900  0.14284200  1
  N  568  1  0.41877500  0.49856200  0.12743700  1
  N  573  1  0.47748000  0.42012700  0.17002600  1
  N  575  1  0.49186700  0.61329600  0.10395800  1
  N  595  1  0.54686200  0.23899600  0.40843400  1
  N  596  1  0.42100000  0.22203600  0.40651500  1
  N  601  1  0.47495000  0.26405600  0.48749700  1
  N  603  1  0.50295100  0.20010600  0.29445200  1
  N  623  1  0.54269900  0.76488000  0.40450700  1
  N  624  1  0.41626000  0.77879600  0.40301700  1
  N  629  1  0.47489000  0.73753600  0.32384300  1
  N  631  1  0.48961100  0.80295600  0.51729900  1
  N  651  1  0.72853800  0.28699800  0.11514100  1
  N  652  1  0.77549700  0.22983400  0.19053600  1
  N  657  1  0.66595700  0.27777700  0.20282000  1
  N  659  1  0.83573100  0.20519200  0.07276400  1
  N  679  1  0.72368400  0.71728100  0.70095900  1
  N  680  1  0.76490300  0.77922600  0.62691400  1
  N  685  1  0.64891000  0.73994300  0.62279800  1
  N  687  1  0.85839000  0.77458200  0.73422700  1
  N  707  1  0.72625900  0.79635200  0.18571500  1
  N  708  1  0.76707100  0.71782300  0.12948400  1
  N  713  1  0.65147800  0.71678500  0.16952700  1
  N  715  1  0.84507600  0.83346000  0.11670900  1
  N  735  1  0.72333900  0.20572600  0.62171000  1
  N  736  1  0.76513400  0.28029000  0.68278600  1
  N  741  1  0.64897000  0.28426300  0.64381400  1
  N  743  1  0.85783200  0.17241500  0.67899900  1
  N  763  1  0.30373500  0.70722400  0.12972100  1
  N  764  1  0.24130100  0.75100800  0.20703000  1
  N  769  1  0.33901300  0.69033500  0.22597200  1
  N  771  1  0.15636000  0.76340100  0.10508000  1
  N  791  1  0.30334100  0.29458600  0.68174000  1
  N  792  1  0.24066500  0.25139300  0.60421800  1
  N  797  1  0.33707100  0.31350400  0.58551700  1
  N  799  1  0.15896800  0.23465100  0.70759800  1
  N  819  1  0.28851600  0.22300700  0.20032300  1
  N  820  1  0.23814200  0.30590200  0.15703000  1
  N  825  1  0.35269500  0.31116200  0.19884000  1
  N  827  1  0.14563600  0.20297600  0.14480900  1
  N  847  1  0.30341100  0.77731900  0.61223000  1
  N  848  1  0.24081700  0.70003300  0.65589000  1
  N  853  1  0.33713600  0.68100200  0.59376700  1
  N  855  1  0.15950300  0.80390400  0.67222200  1
  O  48  1  0.00393600  0.30102200  0.06737800  1
  O  49  1  0.00818100  0.10503500  0.16016200  1
  O  50  1  0.87933600  0.18486900  0.04810200  1
  O  51  1  0.13063700  0.23154300  0.10667500  1
  O  99  1  0.01228600  0.70182700  0.74402400  1
  O  100  1  0.01654800  0.89743800  0.64885300  1
  O  101  1  0.88377000  0.81046500  0.75555300  1
  O  102  1  0.14346800  0.77325400  0.70829100  1
  O  150  1  0.01409500  0.83961800  0.20589400  1
  O  151  1  0.01395400  0.74565300  0.00982600  1
  O  152  1  0.88947500  0.85963000  0.10033300  1
  O  153  1  0.14059900  0.80091400  0.13422000  1
  O  201  1  0.01215300  0.16310900  0.60569100  1
  O  202  1  0.01629100  0.25795600  0.80135600  1
  O  203  1  0.88372000  0.15106000  0.71464100  1
  O  204  1  0.14284900  0.19896200  0.67647100  1
  O  252  1  0.49505200  0.80175000  0.56467800  1
  O  253  1  0.51790600  0.60840500  0.66628000  1
  O  254  1  0.38216900  0.65840500  0.57268500  1
  O  255  1  0.63750200  0.69194500  0.62294300  1
  O  303  1  0.51283100  0.20188600  0.24757500  1
  O  304  1  0.52260700  0.39545900  0.14785200  1
  O  305  1  0.37464600  0.29199600  0.24012300  1
  O  306  1  0.65190600  0.32436600  0.19366600  1
  O  354  1  0.49563800  0.34249000  0.70590100  1
  O  355  1  0.51819400  0.24061700  0.51316200  1
  O  356  1  0.38206200  0.33469000  0.56298900  1
  O  357  1  0.63749600  0.28396200  0.59582600  1
  O  405  1  0.49763200  0.66063500  0.10537600  1
  O  406  1  0.51814700  0.76160800  0.29882600  1
  O  407  1  0.38392300  0.66916900  0.24854500  1
  O  408  1  0.63956500  0.72028300  0.21737900  1
  O  429  1  0.89816900  0.99098700  0.15793700  1
  O  430  1  0.05913600  0.99932600  0.14322900  1
  O  431  1  0.06497100  0.01527600  0.18224700  1
  O  432  1  0.90243100  0.00770300  0.19673200  1
  O  457  1  0.90057300  0.00823500  0.65064300  1
  O  458  1  0.06155800  0.00411600  0.66676400  1
  O  459  1  0.06863400  0.98886900  0.62759500  1
  O  460  1  0.90606800  0.99225300  0.61164000  1
  O  485  1  0.90007700  0.74806600  0.89805200  1
  O  486  1  0.06121400  0.76325600  0.90326600  1
  O  487  1  0.06771300  0.72410700  0.91873200  1
  O  488  1  0.90510500  0.70913700  0.91431300  1
  O  513  1  0.89819700  0.25673400  0.91054300  1
  O  514  1  0.05927900  0.24037600  0.90894500  1
  O  515  1  0.06675400  0.27948500  0.89367600  1
  O  516  1  0.90422800  0.29566700  0.89450600  1
  O  541  1  0.39473300  0.50207900  0.66412200  1
  O  542  1  0.55517900  0.50098400  0.64477300  1
  O  543  1  0.56433500  0.51460300  0.68426200  1
  O  544  1  0.40228100  0.51651000  0.70351300  1
  O  569  1  0.39706400  0.50045900  0.14681200  1
  O  570  1  0.55729500  0.50354800  0.16684400  1
  O  571  1  0.56697200  0.48944800  0.12760200  1
  O  572  1  0.40506700  0.48562200  0.10763200  1
  O  597  1  0.39908100  0.24120000  0.40405800  1
  O  598  1  0.55880600  0.26320300  0.40671700  1
  O  599  1  0.56865400  0.22393300  0.42067000  1
  O  600  1  0.40694600  0.20197000  0.41880000  1
  O  625  1  0.39489100  0.75918300  0.40494000  1
  O  626  1  0.55557400  0.74101100  0.40662500  1
  O  627  1  0.56433000  0.78047700  0.39277000  1
  O  628  1  0.40208100  0.79854100  0.39030800  1
  O  653  1  0.76186600  0.20718600  0.19750400  1
  O  654  1  0.70199300  0.27948500  0.10196700  1
  O  655  1  0.73126600  0.31292300  0.11350400  1
  O  656  1  0.79175700  0.23948800  0.21097100  1
  O  681  1  0.75373600  0.80352800  0.62377900  1
  O  682  1  0.70084800  0.72504100  0.71789100  1
  O  683  1  0.72308400  0.69125600  0.69940500  1
  O  684  1  0.77577500  0.77049500  0.60393500  1
  O  709  1  0.75533000  0.71268900  0.10569800  1
  O  710  1  0.70303100  0.81238600  0.17686100  1
  O  711  1  0.72623800  0.79702200  0.21177900  1
  O  712  1  0.77848200  0.69568600  0.13980300  1
  O  737  1  0.75409200  0.28369900  0.70709100  1
  O  738  1  0.70047200  0.18893500  0.62971400  1
  O  739  1  0.72262500  0.20701100  0.59567200  1
  O  740  1  0.77604700  0.30315500  0.67379200  1
  O  765  1  0.25222600  0.77178300  0.22014700  1
  O  766  1  0.33259100  0.71566700  0.12097100  1
  O  767  1  0.30079400  0.68189000  0.12401700  1
  O  768  1  0.22119200  0.73744400  0.22243900  1
  O  793  1  0.25191700  0.23104300  0.59062200  1
  O  794  1  0.33253300  0.28639200  0.68999400  1
  O  795  1  0.29991900  0.31974700  0.68801000  1
  O  796  1  0.21998400  0.26490100  0.58924800  1
  O  821  1  0.24890500  0.31530300  0.13427800  1
  O  822  1  0.31310900  0.20997900  0.18919600  1
  O  823  1  0.28905600  0.21855100  0.22600700  1
  O  824  1  0.22432400  0.32530000  0.17049400  1
  O  849  1  0.25211300  0.68653400  0.67629100  1
  O  850  1  0.33262200  0.78561800  0.62033900  1
  O  851  1  0.29993200  0.78345800  0.58704000  1
  O  852  1  0.22009800  0.68499800  0.64249100  1
