# generated using pymatgen
data_H40C57(NO)4
_symmetry_space_group_name_H-M   'P 1'
_cell_length_a   40.44740000
_cell_length_b   49.29490000
_cell_length_c   67.68660000
_cell_angle_alpha   90.00000000
_cell_angle_beta   90.00000000
_cell_angle_gamma   89.99860000
_symmetry_Int_Tables_number   1
_chemical_formula_structural   H40C57(NO)4
_chemical_formula_sum   'H640 C912 N64 O64'
_cell_volume   134956.96380270
_cell_formula_units_Z   16
loop_
 _symmetry_equiv_pos_site_id
 _symmetry_equiv_pos_as_xyz
  1  'x, y, z'
loop_
 _atom_site_type_symbol
 _atom_site_label
 _atom_site_symmetry_multiplicity
 _atom_site_fract_x
 _atom_site_fract_y
 _atom_site_fract_z
 _atom_site_occupancy
  H  25  1  0.09177300  0.51854800  0.69119600  1
  H  26  1  0.03340600  0.51150400  0.69522300  1
  H  27  1  0.97162800  0.50950200  0.69368700  1
  H  28  1  0.91349100  0.51308300  0.68699700  1
  H  29  1  0.93215200  0.57635500  0.64599200  1
  H  30  1  0.07290400  0.58093900  0.64952100  1
  H  31  1  0.99533000  0.60585600  0.68805800  1
  H  32  1  0.99062500  0.68252100  0.65976600  1
  H  33  1  0.99683900  0.66089400  0.62813000  1
  H  34  1  0.00916200  0.53625200  0.62123200  1
  H  35  1  0.00398200  0.63033100  0.59884800  1
  H  36  1  0.00993800  0.59451500  0.57508400  1
  H  42  1  0.13232000  0.57028700  0.66641100  1
  H  43  1  0.87309600  0.56429200  0.66035200  1
  H  44  1  0.03250800  0.52883700  0.58356100  1
  H  45  1  0.97256600  0.65081200  0.70455100  1
  H  70  1  0.09027700  0.48165000  0.31158400  1
  H  71  1  0.03190000  0.48677600  0.30628500  1
  H  72  1  0.96998200  0.48676500  0.30645600  1
  H  73  1  0.91166600  0.48146500  0.31202500  1
  H  74  1  0.93092000  0.41951300  0.35399300  1
  H  75  1  0.07186100  0.41969100  0.35367800  1
  H  76  1  0.99861400  0.39149900  0.31370700  1
  H  77  1  0.99782400  0.31518500  0.34263200  1
  H  78  1  0.00071000  0.33756400  0.37413600  1
  H  79  1  0.99987100  0.46261600  0.37992400  1
  H  80  1  0.00095000  0.36899600  0.40327900  1
  H  81  1  0.99905700  0.40521000  0.42670300  1
  H  87  1  0.13115500  0.43095200  0.33776800  1
  H  88  1  0.87161800  0.43037200  0.33841800  1
  H  89  1  0.99287500  0.47753800  0.41473200  1
  H  90  1  0.98009500  0.34648900  0.29705900  1
  H  115  1  0.41103200  0.51970000  0.31444600  1
  H  116  1  0.46903900  0.51419800  0.30915400  1
  H  117  1  0.53080000  0.51076600  0.31179000  1
  H  118  1  0.58780000  0.51074100  0.32146700  1
  H  119  1  0.56919300  0.57539900  0.36131500  1
  H  120  1  0.43019300  0.58256500  0.35571000  1
  H  121  1  0.50976100  0.60839700  0.31667800  1
  H  122  1  0.51515300  0.68480900  0.34529000  1
  H  123  1  0.50692500  0.66309100  0.37677300  1
  H  124  1  0.49114400  0.53857300  0.38268100  1
  H  125  1  0.49731500  0.63228200  0.40587600  1
  H  126  1  0.48941100  0.59615100  0.42927400  1
  H  132  1  0.37559400  0.56027100  0.35419100  1
  H  133  1  0.62108800  0.54653300  0.36304200  1
  H  134  1  0.46594600  0.53134600  0.42034700  1
  H  135  1  0.53430400  0.65344800  0.30074200  1
  H  160  1  0.41270600  0.48170500  0.68521400  1
  H  161  1  0.47038600  0.48427600  0.69270700  1
  H  162  1  0.53231800  0.48448900  0.69244100  1
  H  163  1  0.58994100  0.48198100  0.68464600  1
  H  164  1  0.57089400  0.41751800  0.64470500  1
  H  165  1  0.43130300  0.41747000  0.64500100  1
  H  166  1  0.50386200  0.38792200  0.68726300  1
  H  167  1  0.50503300  0.31097700  0.65924000  1
  H  168  1  0.50217800  0.33266100  0.62745600  1
  H  169  1  0.50277400  0.45757900  0.62049900  1
  H  170  1  0.50192300  0.36358900  0.59789700  1
  H  171  1  0.50399300  0.39948100  0.57416700  1
  H  177  1  0.37817000  0.44359000  0.64453500  1
  H  178  1  0.62394800  0.44342700  0.64399000  1
  H  179  1  0.50908600  0.47213000  0.58591300  1
  H  180  1  0.52270600  0.34322600  0.70435200  1
  H  205  1  0.09091000  0.01758200  0.18998000  1
  H  206  1  0.03261500  0.01112400  0.19480900  1
  H  207  1  0.97078200  0.00975000  0.19415800  1
  H  208  1  0.91245600  0.01385300  0.18827300  1
  H  209  1  0.93036100  0.07697700  0.14703500  1
  H  210  1  0.07135100  0.08004100  0.14846500  1
  H  211  1  0.99896900  0.10597200  0.18804400  1
  H  212  1  0.99390500  0.18264000  0.15969500  1
  H  213  1  0.99567600  0.16074100  0.12806800  1
  H  214  1  0.00616100  0.03598100  0.12122500  1
  H  215  1  0.00000000  0.00000000  0.00000000  1
  H  216  1  0.00491900  0.09401900  0.07493500  1
  H  222  1  0.13086100  0.06934500  0.16442800  1
  H  223  1  0.87139600  0.06499500  0.16212300  1
  H  224  1  0.02837500  0.02847700  0.08348300  1
  H  225  1  0.98838800  0.14825100  0.20707200  1
  H  250  1  0.09000300  0.98366200  0.81386700  1
  H  251  1  0.03187100  0.98722100  0.80715800  1
  H  252  1  0.97005900  0.98537400  0.80569300  1
  H  253  1  0.91165100  0.97859400  0.80988300  1
  H  254  1  0.93042600  0.91714200  0.85230400  1
  H  255  1  0.07118800  0.92139800  0.85566200  1
  H  256  1  0.00678900  0.89128100  0.81401900  1
  H  257  1  0.01071000  0.81507400  0.84308700  1
  H  258  1  0.00518400  0.83735400  0.87440800  1
  H  259  1  0.99561900  0.96222300  0.87993000  1
  H  260  1  0.99791100  0.86865300  0.90340400  1
  H  261  1  0.99275200  0.90486500  0.92670500  1
  H  267  1  0.13048300  0.93323200  0.84096000  1
  H  268  1  0.87114000  0.92743700  0.83544000  1
  H  269  1  0.98470000  0.97674100  0.91474200  1
  H  270  1  0.01813900  0.84949000  0.79539100  1
  H  295  1  0.41165000  0.01888400  0.81614500  1
  H  296  1  0.46946100  0.01441800  0.80961500  1
  H  297  1  0.53137600  0.01216100  0.81081000  1
  H  298  1  0.58884400  0.01289600  0.81929400  1
  H  299  1  0.57109200  0.07675700  0.85995500  1
  H  300  1  0.43162900  0.08160200  0.85738900  1
  H  301  1  0.50532000  0.10941500  0.81686600  1
  H  302  1  0.51087600  0.18557300  0.84587600  1
  H  303  1  0.50761500  0.16318900  0.87736200  1
  H  304  1  0.49479300  0.03838100  0.88268800  1
  H  305  1  0.50153300  0.13177800  0.90647600  1
  H  306  1  0.49530200  0.09528800  0.92972900  1
  H  312  1  0.37747000  0.05795600  0.85680000  1
  H  313  1  0.62349100  0.04917500  0.86059000  1
  H  314  1  0.47146600  0.03033400  0.92033100  1
  H  315  1  0.51971200  0.15256100  0.79879600  1
  H  340  1  0.41356600  0.98463800  0.18277600  1
  H  341  1  0.47068000  0.98490100  0.19208100  1
  H  342  1  0.53245400  0.98214100  0.19415000  1
  H  343  1  0.59041100  0.97733600  0.18832200  1
  H  344  1  0.57130500  0.91432100  0.14718500  1
  H  345  1  0.43202300  0.92026600  0.14265100  1
  H  346  1  0.49352700  0.88775000  0.18698500  1
  H  347  1  0.48800600  0.81115500  0.15856600  1
  H  348  1  0.49513200  0.83277700  0.12707900  1
  H  349  1  0.50869700  0.95730900  0.12076800  1
  H  350  1  0.50479900  0.86347100  0.09788600  1
  H  351  1  0.51197800  0.89931700  0.07441500  1
  H  357  1  0.37989600  0.94846200  0.14123000  1
  H  358  1  0.62559300  0.93727700  0.14824500  1
  H  359  1  0.52170200  0.97104700  0.08616400  1
  H  360  1  0.47902400  0.84618900  0.20561900  1
  H  367  1  0.94961800  0.49988600  0.51557300  1
  H  368  1  0.94774800  0.52008500  0.54776700  1
  H  375  1  0.01857400  0.45607700  0.50222600  1
  H  376  1  0.01947700  0.43440300  0.47067300  1
  H  377  1  0.98346300  0.50535300  0.44383500  1
  H  378  1  0.04995100  0.53504200  0.54528400  1
  H  382  1  0.99788000  0.54954800  0.48428800  1
  H  383  1  0.95662500  0.53796700  0.48522700  1
  H  384  1  0.99241000  0.55446900  0.45111600  1
  H  386  1  0.06189700  0.50981200  0.49423900  1
  H  387  1  0.07283200  0.53714700  0.50963700  1
  H  388  1  0.10762600  0.50021000  0.51313200  1
  H  397  1  0.55314000  0.49697300  0.48509900  1
  H  398  1  0.55351600  0.51928800  0.45363500  1
  H  405  1  0.48586000  0.45237600  0.49836400  1
  H  406  1  0.48547000  0.42948700  0.52948100  1
  H  407  1  0.52064900  0.49979600  0.55763900  1
  H  408  1  0.45159400  0.53460200  0.45858700  1
  H  412  1  0.50528100  0.54537300  0.51829600  1
  H  413  1  0.54665800  0.53422300  0.51675200  1
  H  414  1  0.51148100  0.54900800  0.55149700  1
  H  416  1  0.44195100  0.50565000  0.50874700  1
  H  417  1  0.43054400  0.53421500  0.49471200  1
  H  418  1  0.39523600  0.49779200  0.49031000  1
  H  427  1  0.94598400  0.99949400  0.01528600  1
  H  428  1  0.94382500  0.01952200  0.04752200  1
  H  435  1  0.01539700  0.95605800  0.00187600  1
  H  436  1  0.01586200  0.93443000  0.97030500  1
  H  437  1  0.97901700  0.00529300  0.94374100  1
  H  438  1  0.04595500  0.03486000  0.04528600  1
  H  442  1  0.99409400  0.04945100  0.98417600  1
  H  443  1  0.95284300  0.03787900  0.98522300  1
  H  444  1  0.98837200  0.05442600  0.95102100  1
  H  446  1  0.05832500  0.00987400  0.99421000  1
  H  447  1  0.06901000  0.03720900  0.00967100  1
  H  448  1  0.10402400  0.00041500  0.01317100  1
  H  457  1  0.55742000  0.99676100  0.98579300  1
  H  458  1  0.55820600  0.01880800  0.95423700  1
  H  465  1  0.48964800  0.95231500  0.99916800  1
  H  466  1  0.48986100  0.92968800  0.03038200  1
  H  467  1  0.52558600  0.00022300  0.05799500  1
  H  468  1  0.45615800  0.03393300  0.95856900  1
  H  472  1  0.50923400  0.04541400  0.01849500  1
  H  473  1  0.55069000  0.03447100  0.01690400  1
  H  474  1  0.51561300  0.04936600  0.05166700  1
  H  476  1  0.44587000  0.00538700  0.00881400  1
  H  477  1  0.43461400  0.03383600  0.99460900  1
  H  478  1  0.39941000  0.99735400  0.99017900  1
  H  487  1  0.26074600  0.48041300  0.69042500  1
  H  488  1  0.31503800  0.46197400  0.69430400  1
  H  495  1  0.21148200  0.46767900  0.64874300  1
  H  496  1  0.15622200  0.48476500  0.65004100  1
  H  497  1  0.19088000  0.55908400  0.67223900  1
  H  498  1  0.33661200  0.48001000  0.63497800  1
  H  502  1  0.27619000  0.54845300  0.66167100  1
  H  503  1  0.26718900  0.53890600  0.68621500  1
  H  504  1  0.24322900  0.58533300  0.66575100  1
  H  506  1  0.25631500  0.51299900  0.62390600  1
  H  507  1  0.29906000  0.51810600  0.62050100  1
  H  508  1  0.27589100  0.49050300  0.59657700  1
  H  517  1  0.25873100  0.52006100  0.31061800  1
  H  518  1  0.31308300  0.53811000  0.30597600  1
  H  525  1  0.21037900  0.53414400  0.35236900  1
  H  526  1  0.15507800  0.51705000  0.35174100  1
  H  527  1  0.18930700  0.44197500  0.33068000  1
  H  528  1  0.33594500  0.52178900  0.36538100  1
  H  532  1  0.27480100  0.45288300  0.34047800  1
  H  533  1  0.26535700  0.46163900  0.31583600  1
  H  534  1  0.24174100  0.41590400  0.33725000  1
  H  536  1  0.25576900  0.48939200  0.37765800  1
  H  537  1  0.29857000  0.48411700  0.38067000  1
  H  538  1  0.27634900  0.51236600  0.40450700  1
  H  547  1  0.74043300  0.51904100  0.31488000  1
  H  548  1  0.68507500  0.53553800  0.31189900  1
  H  555  1  0.79036700  0.53119300  0.35575000  1
  H  556  1  0.84620300  0.51547000  0.35378000  1
  H  557  1  0.81359900  0.44080600  0.33108200  1
  H  558  1  0.66572600  0.51315300  0.37073600  1
  H  562  1  0.72832900  0.44897900  0.34244700  1
  H  563  1  0.73619800  0.45958200  0.31799500  1
  H  564  1  0.76250500  0.41311600  0.33734300  1
  H  566  1  0.74822800  0.48315600  0.38039600  1
  H  567  1  0.70594900  0.47592100  0.38386300  1
  H  568  1  0.72766300  0.50324000  0.40844300  1
  H  577  1  0.74343900  0.47698100  0.68851100  1
  H  578  1  0.68851400  0.46009800  0.69305900  1
  H  585  1  0.79050600  0.46335800  0.64657000  1
  H  586  1  0.84646900  0.47896900  0.64712100  1
  H  587  1  0.81549400  0.55431500  0.66941300  1
  H  588  1  0.66520700  0.48007700  0.63428500  1
  H  592  1  0.72949800  0.54601900  0.66003600  1
  H  593  1  0.73896700  0.53615000  0.68445000  1
  H  594  1  0.76406000  0.58196800  0.66374700  1
  H  596  1  0.74649000  0.51072100  0.62225600  1
  H  597  1  0.70389700  0.51734700  0.61963200  1
  H  598  1  0.72452900  0.48950400  0.59503800  1
  H  607  1  0.26134400  0.98058300  0.18851600  1
  H  608  1  0.31616800  0.96306300  0.19189900  1
  H  615  1  0.21169700  0.96778600  0.14723100  1
  H  616  1  0.15606900  0.98403400  0.14882700  1
  H  617  1  0.18934400  0.05871400  0.17113300  1
  H  618  1  0.33640200  0.98289200  0.13269500  1
  H  622  1  0.27471400  0.04949600  0.16021600  1
  H  623  1  0.26628400  0.03948900  0.18473500  1
  H  624  1  0.24098400  0.08580500  0.16472100  1
  H  626  1  0.25497300  0.01443000  0.12238600  1
  H  627  1  0.29749200  0.02049500  0.11880800  1
  H  628  1  0.27481300  0.99284500  0.09474200  1
  H  637  1  0.25898000  0.02162600  0.81267000  1
  H  638  1  0.31361900  0.03911700  0.80809500  1
  H  645  1  0.21148900  0.03521200  0.85459800  1
  H  646  1  0.15580900  0.01892600  0.85409500  1
  H  647  1  0.18815800  0.94375300  0.83217800  1
  H  648  1  0.33695800  0.02035400  0.86705700  1
  H  652  1  0.27397800  0.95319200  0.84157600  1
  H  653  1  0.26439500  0.96267700  0.81709700  1
  H  654  1  0.24006900  0.91679000  0.83804500  1
  H  656  1  0.25626600  0.98870400  0.87914600  1
  H  657  1  0.29898300  0.98272900  0.88187100  1
  H  658  1  0.27764700  0.01051500  0.90628100  1
  H  667  1  0.74102900  0.01702300  0.81256500  1
  H  668  1  0.68614000  0.03453500  0.80953400  1
  H  675  1  0.79162600  0.02954100  0.85339500  1
  H  676  1  0.84706300  0.01293100  0.85147300  1
  H  677  1  0.81267200  0.93838000  0.82953000  1
  H  678  1  0.66694500  0.01462300  0.86884600  1
  H  682  1  0.72763900  0.94814500  0.84103200  1
  H  683  1  0.73561500  0.95804600  0.81643500  1
  H  684  1  0.76094600  0.91163300  0.83631200  1
  H  686  1  0.74858400  0.98317000  0.87865800  1
  H  687  1  0.70613400  0.97700800  0.88245400  1
  H  688  1  0.72908500  0.00464100  0.90643600  1
  H  697  1  0.74321200  0.97730600  0.19104500  1
  H  698  1  0.68886700  0.95942300  0.19609200  1
  H  705  1  0.79021100  0.96277000  0.14889200  1
  H  706  1  0.84582800  0.97915800  0.14906000  1
  H  707  1  0.81352700  0.05459600  0.17048200  1
  H  708  1  0.66473500  0.97608700  0.13691200  1
  H  712  1  0.72759400  0.04480500  0.16144500  1
  H  713  1  0.73752100  0.03584100  0.18597900  1
  H  714  1  0.76142400  0.08135400  0.16443100  1
  H  716  1  0.74479200  0.00829800  0.12407700  1
  H  717  1  0.70195600  0.01368100  0.12137800  1
  H  718  1  0.72359100  0.98541800  0.09735700  1
  H  727  1  0.00294700  0.72863300  0.78309900  1
  H  728  1  0.00432600  0.76182500  0.80883700  1
  H  735  1  0.05466800  0.73709900  0.73996600  1
  H  736  1  0.05503400  0.70412200  0.71398200  1
  H  737  1  0.95195600  0.69583600  0.71843200  1
  H  738  1  0.00671700  0.82431100  0.76646800  1
  H  742  1  0.93776200  0.75480800  0.74670000  1
  H  743  1  0.94043300  0.72708500  0.76311600  1
  H  744  1  0.90738100  0.72859900  0.72604600  1
  H  746  1  0.00095600  0.77941900  0.72277500  1
  H  747  1  0.98472600  0.80998000  0.73209300  1
  H  748  1  0.03485200  0.81569000  0.71611900  1
  H  757  1  0.01019300  0.26779600  0.21976600  1
  H  758  1  0.00898400  0.23479300  0.19389900  1
  H  765  1  0.05904400  0.25783000  0.26318500  1
  H  766  1  0.06013400  0.29089300  0.28913700  1
  H  767  1  0.95751000  0.30173400  0.28393800  1
  H  768  1  0.00490000  0.17203000  0.23600200  1
  H  772  1  0.94156000  0.24317400  0.25560600  1
  H  773  1  0.94581400  0.27074300  0.23917400  1
  H  774  1  0.91178200  0.27028900  0.27594200  1
  H  776  1  0.00288200  0.21686600  0.27988800  1
  H  777  1  0.98376800  0.18750700  0.27045800  1
  H  778  1  0.03322000  0.17849800  0.28639000  1
  H  787  1  0.49966800  0.72683200  0.22063400  1
  H  788  1  0.49717900  0.75884900  0.19413700  1
  H  795  1  0.44867600  0.73642000  0.26387200  1
  H  796  1  0.44957600  0.70454400  0.29055800  1
  H  797  1  0.55278700  0.69780700  0.28564100  1
  H  798  1  0.49442200  0.82314700  0.23503400  1
  H  802  1  0.56503700  0.75570400  0.25589200  1
  H  803  1  0.56265900  0.72721200  0.24017400  1
  H  804  1  0.59644900  0.73090500  0.27692200  1
  H  806  1  0.50184200  0.78030800  0.27972100  1
  H  807  1  0.51734800  0.81061000  0.26955500  1
  H  808  1  0.46747800  0.81647200  0.28578600  1
  H  817  1  0.49161100  0.26908500  0.78329800  1
  H  818  1  0.49318300  0.23743400  0.81006300  1
  H  825  1  0.44203300  0.25807600  0.74069300  1
  H  826  1  0.44142000  0.28981600  0.71386500  1
  H  827  1  0.54455100  0.29823900  0.71775100  1
  H  828  1  0.49566300  0.17250500  0.76969300  1
  H  832  1  0.55918800  0.24084300  0.74753500  1
  H  833  1  0.55633500  0.26930900  0.76324600  1
  H  834  1  0.58937300  0.26618000  0.72622500  1
  H  836  1  0.49672600  0.21498800  0.72455200  1
  H  837  1  0.51616400  0.18615300  0.73460200  1
  H  838  1  0.46626500  0.17629300  0.71946600  1
  H  865  1  0.09177300  0.15339900  0.69119600  1
  H  866  1  0.03340600  0.14635500  0.69522300  1
  H  867  1  0.97162800  0.14435300  0.69368700  1
  H  868  1  0.91349100  0.14793400  0.68699700  1
  H  869  1  0.93215200  0.21120600  0.64599200  1
  H  870  1  0.07290400  0.21579000  0.64952100  1
  H  871  1  0.99533000  0.24070700  0.68805800  1
  H  872  1  0.99062500  0.31737200  0.65976600  1
  H  873  1  0.99683900  0.29574500  0.62813000  1
  H  874  1  0.00916200  0.17110300  0.62123200  1
  H  875  1  0.00398200  0.26518200  0.59884800  1
  H  876  1  0.00993800  0.22936600  0.57508400  1
  H  882  1  0.13232000  0.20513800  0.66641100  1
  H  883  1  0.87309600  0.19914300  0.66035200  1
  H  884  1  0.03250800  0.16368800  0.58356100  1
  H  885  1  0.97256600  0.28566300  0.70455100  1
  H  910  1  0.09027700  0.11650100  0.31158400  1
  H  911  1  0.03190000  0.12162700  0.30628500  1
  H  912  1  0.96998200  0.12161600  0.30645600  1
  H  913  1  0.91166600  0.11631600  0.31202500  1
  H  914  1  0.93092000  0.05436400  0.35399300  1
  H  915  1  0.07186100  0.05454200  0.35367800  1
  H  916  1  0.99861400  0.02635000  0.31370700  1
  H  917  1  0.99782400  0.95003570  0.34263200  1
  H  918  1  0.00071000  0.97241470  0.37413600  1
  H  919  1  0.99987100  0.09746700  0.37992400  1
  H  920  1  0.00095000  0.00384700  0.40327900  1
  H  921  1  0.99905700  0.04006100  0.42670300  1
  H  927  1  0.13115500  0.06580300  0.33776800  1
  H  928  1  0.87161800  0.06522300  0.33841800  1
  H  929  1  0.99287500  0.11238900  0.41473200  1
  H  930  1  0.98009500  0.98133970  0.29705900  1
  H  955  1  0.41103200  0.15455100  0.31444600  1
  H  956  1  0.46903900  0.14904900  0.30915400  1
  H  957  1  0.53080000  0.14561700  0.31179000  1
  H  958  1  0.58780000  0.14559200  0.32146700  1
  H  959  1  0.56919300  0.21025000  0.36131500  1
  H  960  1  0.43019300  0.21741600  0.35571000  1
  H  961  1  0.50976100  0.24324800  0.31667800  1
  H  962  1  0.51515300  0.31966000  0.34529000  1
  H  963  1  0.50692500  0.29794200  0.37677300  1
  H  964  1  0.49114400  0.17342400  0.38268100  1
  H  965  1  0.49731500  0.26713300  0.40587600  1
  H  966  1  0.48941100  0.23100200  0.42927400  1
  H  972  1  0.37559400  0.19512200  0.35419100  1
  H  973  1  0.62108800  0.18138400  0.36304200  1
  H  974  1  0.46594600  0.16619700  0.42034700  1
  H  975  1  0.53430400  0.28829900  0.30074200  1
  H  1000  1  0.41270600  0.11655600  0.68521400  1
  H  1001  1  0.47038600  0.11912700  0.69270700  1
  H  1002  1  0.53231800  0.11934000  0.69244100  1
  H  1003  1  0.58994100  0.11683200  0.68464600  1
  H  1004  1  0.57089400  0.05236900  0.64470500  1
  H  1005  1  0.43130300  0.05232100  0.64500100  1
  H  1006  1  0.50386200  0.02277300  0.68726300  1
  H  1007  1  0.50503300  0.94582770  0.65924000  1
  H  1008  1  0.50217800  0.96751170  0.62745600  1
  H  1009  1  0.50277400  0.09243000  0.62049900  1
  H  1010  1  0.50192300  0.99843966  0.59789700  1
  H  1011  1  0.50399300  0.03433200  0.57416700  1
  H  1017  1  0.37817000  0.07844100  0.64453500  1
  H  1018  1  0.62394800  0.07827800  0.64399000  1
  H  1019  1  0.50908600  0.10698100  0.58591300  1
  H  1020  1  0.52270600  0.97807670  0.70435200  1
  H  1045  1  0.09091000  0.65243300  0.18998000  1
  H  1046  1  0.03261500  0.64597500  0.19480900  1
  H  1047  1  0.97078200  0.64460100  0.19415800  1
  H  1048  1  0.91245600  0.64870400  0.18827300  1
  H  1049  1  0.93036100  0.71182800  0.14703500  1
  H  1050  1  0.07135100  0.71489200  0.14846500  1
  H  1051  1  0.99896900  0.74082300  0.18804400  1
  H  1052  1  0.99390500  0.81749100  0.15969500  1
  H  1053  1  0.99567600  0.79559200  0.12806800  1
  H  1054  1  0.00616100  0.67083200  0.12122500  1
  H  1055  1  0.00000000  0.63485100  0.00000000  1
  H  1056  1  0.00491900  0.72887000  0.07493500  1
  H  1062  1  0.13086100  0.70419600  0.16442800  1
  H  1063  1  0.87139600  0.69984600  0.16212300  1
  H  1064  1  0.02837500  0.66332800  0.08348300  1
  H  1065  1  0.98838800  0.78310200  0.20707200  1
  H  1090  1  0.09000300  0.61851300  0.81386700  1
  H  1091  1  0.03187100  0.62207200  0.80715800  1
  H  1092  1  0.97005900  0.62022500  0.80569300  1
  H  1093  1  0.91165100  0.61344500  0.80988300  1
  H  1094  1  0.93042600  0.55199300  0.85230400  1
  H  1095  1  0.07118800  0.55624900  0.85566200  1
  H  1096  1  0.00678900  0.52613200  0.81401900  1
  H  1097  1  0.01071000  0.44992500  0.84308700  1
  H  1098  1  0.00518400  0.47220500  0.87440800  1
  H  1099  1  0.99561900  0.59707400  0.87993000  1
  H  1100  1  0.99791100  0.50350400  0.90340400  1
  H  1101  1  0.99275200  0.53971600  0.92670500  1
  H  1107  1  0.13048300  0.56808300  0.84096000  1
  H  1108  1  0.87114000  0.56228800  0.83544000  1
  H  1109  1  0.98470000  0.61159200  0.91474200  1
  H  1110  1  0.01813900  0.48434100  0.79539100  1
  H  1135  1  0.41165000  0.65373500  0.81614500  1
  H  1136  1  0.46946100  0.64926900  0.80961500  1
  H  1137  1  0.53137600  0.64701200  0.81081000  1
  H  1138  1  0.58884400  0.64774700  0.81929400  1
  H  1139  1  0.57109200  0.71160800  0.85995500  1
  H  1140  1  0.43162900  0.71645300  0.85738900  1
  H  1141  1  0.50532000  0.74426600  0.81686600  1
  H  1142  1  0.51087600  0.82042400  0.84587600  1
  H  1143  1  0.50761500  0.79804000  0.87736200  1
  H  1144  1  0.49479300  0.67323200  0.88268800  1
  H  1145  1  0.50153300  0.76662900  0.90647600  1
  H  1146  1  0.49530200  0.73013900  0.92972900  1
  H  1152  1  0.37747000  0.69280700  0.85680000  1
  H  1153  1  0.62349100  0.68402600  0.86059000  1
  H  1154  1  0.47146600  0.66518500  0.92033100  1
  H  1155  1  0.51971200  0.78741200  0.79879600  1
  H  1180  1  0.41356600  0.61948900  0.18277600  1
  H  1181  1  0.47068000  0.61975200  0.19208100  1
  H  1182  1  0.53245400  0.61699200  0.19415000  1
  H  1183  1  0.59041100  0.61218700  0.18832200  1
  H  1184  1  0.57130500  0.54917200  0.14718500  1
  H  1185  1  0.43202300  0.55511700  0.14265100  1
  H  1186  1  0.49352700  0.52260100  0.18698500  1
  H  1187  1  0.48800600  0.44600600  0.15856600  1
  H  1188  1  0.49513200  0.46762800  0.12707900  1
  H  1189  1  0.50869700  0.59216000  0.12076800  1
  H  1190  1  0.50479900  0.49832200  0.09788600  1
  H  1191  1  0.51197800  0.53416800  0.07441500  1
  H  1197  1  0.37989600  0.58331300  0.14123000  1
  H  1198  1  0.62559300  0.57212800  0.14824500  1
  H  1199  1  0.52170200  0.60589800  0.08616400  1
  H  1200  1  0.47902400  0.48104000  0.20561900  1
  H  1207  1  0.94961800  0.13473700  0.51557300  1
  H  1208  1  0.94774800  0.15493600  0.54776700  1
  H  1215  1  0.01857400  0.09092800  0.50222600  1
  H  1216  1  0.01947700  0.06925400  0.47067300  1
  H  1217  1  0.98346300  0.14020400  0.44383500  1
  H  1218  1  0.04995100  0.16989300  0.54528400  1
  H  1222  1  0.99788000  0.18439900  0.48428800  1
  H  1223  1  0.95662500  0.17281800  0.48522700  1
  H  1224  1  0.99241000  0.18932000  0.45111600  1
  H  1226  1  0.06189700  0.14466300  0.49423900  1
  H  1227  1  0.07283200  0.17199800  0.50963700  1
  H  1228  1  0.10762600  0.13506100  0.51313200  1
  H  1237  1  0.55314000  0.13182400  0.48509900  1
  H  1238  1  0.55351600  0.15413900  0.45363500  1
  H  1245  1  0.48586000  0.08722700  0.49836400  1
  H  1246  1  0.48547000  0.06433800  0.52948100  1
  H  1247  1  0.52064900  0.13464700  0.55763900  1
  H  1248  1  0.45159400  0.16945300  0.45858700  1
  H  1252  1  0.50528100  0.18022400  0.51829600  1
  H  1253  1  0.54665800  0.16907400  0.51675200  1
  H  1254  1  0.51148100  0.18385900  0.55149700  1
  H  1256  1  0.44195100  0.14050100  0.50874700  1
  H  1257  1  0.43054400  0.16906600  0.49471200  1
  H  1258  1  0.39523600  0.13264300  0.49031000  1
  H  1267  1  0.94598400  0.63434500  0.01528600  1
  H  1268  1  0.94382500  0.65437300  0.04752200  1
  H  1275  1  0.01539700  0.59090900  0.00187600  1
  H  1276  1  0.01586200  0.56928100  0.97030500  1
  H  1277  1  0.97901700  0.64014400  0.94374100  1
  H  1278  1  0.04595500  0.66971100  0.04528600  1
  H  1282  1  0.99409400  0.68430200  0.98417600  1
  H  1283  1  0.95284300  0.67273000  0.98522300  1
  H  1284  1  0.98837200  0.68927700  0.95102100  1
  H  1286  1  0.05832500  0.64472500  0.99421000  1
  H  1287  1  0.06901000  0.67206000  0.00967100  1
  H  1288  1  0.10402400  0.63526600  0.01317100  1
  H  1297  1  0.55742000  0.63161200  0.98579300  1
  H  1298  1  0.55820600  0.65365900  0.95423700  1
  H  1305  1  0.48964800  0.58716600  0.99916800  1
  H  1306  1  0.48986100  0.56453900  0.03038200  1
  H  1307  1  0.52558600  0.63507400  0.05799500  1
  H  1308  1  0.45615800  0.66878400  0.95856900  1
  H  1312  1  0.50923400  0.68026500  0.01849500  1
  H  1313  1  0.55069000  0.66932200  0.01690400  1
  H  1314  1  0.51561300  0.68421700  0.05166700  1
  H  1316  1  0.44587000  0.64023800  0.00881400  1
  H  1317  1  0.43461400  0.66868700  0.99460900  1
  H  1318  1  0.39941000  0.63220500  0.99017900  1
  H  1327  1  0.26074600  0.11526400  0.69042500  1
  H  1328  1  0.31503800  0.09682500  0.69430400  1
  H  1335  1  0.21148200  0.10253000  0.64874300  1
  H  1336  1  0.15622200  0.11961600  0.65004100  1
  H  1337  1  0.19088000  0.19393500  0.67223900  1
  H  1338  1  0.33661200  0.11486100  0.63497800  1
  H  1342  1  0.27619000  0.18330400  0.66167100  1
  H  1343  1  0.26718900  0.17375700  0.68621500  1
  H  1344  1  0.24322900  0.22018400  0.66575100  1
  H  1346  1  0.25631500  0.14785000  0.62390600  1
  H  1347  1  0.29906000  0.15295700  0.62050100  1
  H  1348  1  0.27589100  0.12535400  0.59657700  1
  H  1357  1  0.25873100  0.15491200  0.31061800  1
  H  1358  1  0.31308300  0.17296100  0.30597600  1
  H  1365  1  0.21037900  0.16899500  0.35236900  1
  H  1366  1  0.15507800  0.15190100  0.35174100  1
  H  1367  1  0.18930700  0.07682600  0.33068000  1
  H  1368  1  0.33594500  0.15664000  0.36538100  1
  H  1372  1  0.27480100  0.08773400  0.34047800  1
  H  1373  1  0.26535700  0.09649000  0.31583600  1
  H  1374  1  0.24174100  0.05075500  0.33725000  1
  H  1376  1  0.25576900  0.12424300  0.37765800  1
  H  1377  1  0.29857000  0.11896800  0.38067000  1
  H  1378  1  0.27634900  0.14721700  0.40450700  1
  H  1387  1  0.74043300  0.15389200  0.31488000  1
  H  1388  1  0.68507500  0.17038900  0.31189900  1
  H  1395  1  0.79036700  0.16604400  0.35575000  1
  H  1396  1  0.84620300  0.15032100  0.35378000  1
  H  1397  1  0.81359900  0.07565700  0.33108200  1
  H  1398  1  0.66572600  0.14800400  0.37073600  1
  H  1402  1  0.72832900  0.08383000  0.34244700  1
  H  1403  1  0.73619800  0.09443300  0.31799500  1
  H  1404  1  0.76250500  0.04796700  0.33734300  1
  H  1406  1  0.74822800  0.11800700  0.38039600  1
  H  1407  1  0.70594900  0.11077200  0.38386300  1
  H  1408  1  0.72766300  0.13809100  0.40844300  1
  H  1417  1  0.74343900  0.11183200  0.68851100  1
  H  1418  1  0.68851400  0.09494900  0.69305900  1
  H  1425  1  0.79050600  0.09820900  0.64657000  1
  H  1426  1  0.84646900  0.11382000  0.64712100  1
  H  1427  1  0.81549400  0.18916600  0.66941300  1
  H  1428  1  0.66520700  0.11492800  0.63428500  1
  H  1432  1  0.72949800  0.18087000  0.66003600  1
  H  1433  1  0.73896700  0.17100100  0.68445000  1
  H  1434  1  0.76406000  0.21681900  0.66374700  1
  H  1436  1  0.74649000  0.14557200  0.62225600  1
  H  1437  1  0.70389700  0.15219800  0.61963200  1
  H  1438  1  0.72452900  0.12435500  0.59503800  1
  H  1447  1  0.26134400  0.61543400  0.18851600  1
  H  1448  1  0.31616800  0.59791400  0.19189900  1
  H  1455  1  0.21169700  0.60263700  0.14723100  1
  H  1456  1  0.15606900  0.61888500  0.14882700  1
  H  1457  1  0.18934400  0.69356500  0.17113300  1
  H  1458  1  0.33640200  0.61774300  0.13269500  1
  H  1462  1  0.27471400  0.68434700  0.16021600  1
  H  1463  1  0.26628400  0.67434000  0.18473500  1
  H  1464  1  0.24098400  0.72065600  0.16472100  1
  H  1466  1  0.25497300  0.64928100  0.12238600  1
  H  1467  1  0.29749200  0.65534600  0.11880800  1
  H  1468  1  0.27481300  0.62769600  0.09474200  1
  H  1477  1  0.25898000  0.65647700  0.81267000  1
  H  1478  1  0.31361900  0.67396800  0.80809500  1
  H  1485  1  0.21148900  0.67006300  0.85459800  1
  H  1486  1  0.15580900  0.65377700  0.85409500  1
  H  1487  1  0.18815800  0.57860400  0.83217800  1
  H  1488  1  0.33695800  0.65520500  0.86705700  1
  H  1492  1  0.27397800  0.58804300  0.84157600  1
  H  1493  1  0.26439500  0.59752800  0.81709700  1
  H  1494  1  0.24006900  0.55164100  0.83804500  1
  H  1496  1  0.25626600  0.62355500  0.87914600  1
  H  1497  1  0.29898300  0.61758000  0.88187100  1
  H  1498  1  0.27764700  0.64536600  0.90628100  1
  H  1507  1  0.74102900  0.65187400  0.81256500  1
  H  1508  1  0.68614000  0.66938600  0.80953400  1
  H  1515  1  0.79162600  0.66439200  0.85339500  1
  H  1516  1  0.84706300  0.64778200  0.85147300  1
  H  1517  1  0.81267200  0.57323100  0.82953000  1
  H  1518  1  0.66694500  0.64947400  0.86884600  1
  H  1522  1  0.72763900  0.58299600  0.84103200  1
  H  1523  1  0.73561500  0.59289700  0.81643500  1
  H  1524  1  0.76094600  0.54648400  0.83631200  1
  H  1526  1  0.74858400  0.61802100  0.87865800  1
  H  1527  1  0.70613400  0.61185900  0.88245400  1
  H  1528  1  0.72908500  0.63949200  0.90643600  1
  H  1537  1  0.74321200  0.61215700  0.19104500  1
  H  1538  1  0.68886700  0.59427400  0.19609200  1
  H  1545  1  0.79021100  0.59762100  0.14889200  1
  H  1546  1  0.84582800  0.61400900  0.14906000  1
  H  1547  1  0.81352700  0.68944700  0.17048200  1
  H  1548  1  0.66473500  0.61093800  0.13691200  1
  H  1552  1  0.72759400  0.67965600  0.16144500  1
  H  1553  1  0.73752100  0.67069200  0.18597900  1
  H  1554  1  0.76142400  0.71620500  0.16443100  1
  H  1556  1  0.74479200  0.64314900  0.12407700  1
  H  1557  1  0.70195600  0.64853200  0.12137800  1
  H  1558  1  0.72359100  0.62026900  0.09735700  1
  H  1567  1  0.00294700  0.36348400  0.78309900  1
  H  1568  1  0.00432600  0.39667600  0.80883700  1
  H  1575  1  0.05466800  0.37195000  0.73996600  1
  H  1576  1  0.05503400  0.33897300  0.71398200  1
  H  1577  1  0.95195600  0.33068700  0.71843200  1
  H  1578  1  0.00671700  0.45916200  0.76646800  1
  H  1582  1  0.93776200  0.38965900  0.74670000  1
  H  1583  1  0.94043300  0.36193600  0.76311600  1
  H  1584  1  0.90738100  0.36345000  0.72604600  1
  H  1586  1  0.00095600  0.41427000  0.72277500  1
  H  1587  1  0.98472600  0.44483100  0.73209300  1
  H  1588  1  0.03485200  0.45054100  0.71611900  1
  H  1597  1  0.01019300  0.90264670  0.21976600  1
  H  1598  1  0.00898400  0.86964400  0.19389900  1
  H  1605  1  0.05904400  0.89268100  0.26318500  1
  H  1606  1  0.06013400  0.92574370  0.28913700  1
  H  1607  1  0.95751000  0.93658470  0.28393800  1
  H  1608  1  0.00490000  0.80688100  0.23600200  1
  H  1612  1  0.94156000  0.87802500  0.25560600  1
  H  1613  1  0.94581400  0.90559370  0.23917400  1
  H  1614  1  0.91178200  0.90513970  0.27594200  1
  H  1616  1  0.00288200  0.85171700  0.27988800  1
  H  1617  1  0.98376800  0.82235800  0.27045800  1
  H  1618  1  0.03322000  0.81334900  0.28639000  1
  H  1627  1  0.49966800  0.36168300  0.22063400  1
  H  1628  1  0.49717900  0.39370000  0.19413700  1
  H  1635  1  0.44867600  0.37127100  0.26387200  1
  H  1636  1  0.44957600  0.33939500  0.29055800  1
  H  1637  1  0.55278700  0.33265800  0.28564100  1
  H  1638  1  0.49442200  0.45799800  0.23503400  1
  H  1642  1  0.56503700  0.39055500  0.25589200  1
  H  1643  1  0.56265900  0.36206300  0.24017400  1
  H  1644  1  0.59644900  0.36575600  0.27692200  1
  H  1646  1  0.50184200  0.41515900  0.27972100  1
  H  1647  1  0.51734800  0.44546100  0.26955500  1
  H  1648  1  0.46747800  0.45132300  0.28578600  1
  H  1657  1  0.49161100  0.90393570  0.78329800  1
  H  1658  1  0.49318300  0.87228500  0.81006300  1
  H  1665  1  0.44203300  0.89292700  0.74069300  1
  H  1666  1  0.44142000  0.92466670  0.71386500  1
  H  1667  1  0.54455100  0.93308970  0.71775100  1
  H  1668  1  0.49566300  0.80735600  0.76969300  1
  H  1672  1  0.55918800  0.87569400  0.74753500  1
  H  1673  1  0.55633500  0.90415970  0.76324600  1
  H  1674  1  0.58937300  0.90103070  0.72622500  1
  H  1676  1  0.49672600  0.84983900  0.72455200  1
  H  1677  1  0.51616400  0.82100400  0.73460200  1
  H  1678  1  0.46626500  0.81114400  0.71946600  1
  C  1  1  0.00438300  0.57711800  0.63021200  1
  C  2  1  0.00295400  0.60405000  0.62365800  1
  C  3  1  0.99995000  0.62105200  0.63984600  1
  C  4  1  0.99957800  0.60519400  0.65697300  1
  C  5  1  0.99590700  0.61764200  0.67560900  1
  C  6  1  0.99295200  0.64621900  0.67686200  1
  C  7  1  0.99334100  0.66187800  0.65926300  1
  C  8  1  0.99690400  0.64942000  0.64070700  1
  C  9  1  0.00474600  0.61061700  0.60350800  1
  C  10  1  0.00809900  0.58950900  0.58973100  1
  C  11  1  0.00938000  0.56200100  0.59591200  1
  C  12  1  0.00783900  0.55587900  0.61636600  1
  C  13  1  0.03065900  0.56234300  0.66190200  1
  C  14  1  0.01953600  0.54211400  0.67480700  1
  C  15  1  0.98539500  0.54065300  0.67368900  1
  C  16  1  0.97424100  0.55985800  0.65999900  1
  C  17  1  0.96334200  0.52345200  0.68367300  1
  C  18  1  0.92939800  0.52566600  0.67961200  1
  C  19  1  0.91740500  0.54473500  0.66560100  1
  C  20  1  0.94011600  0.56223600  0.65600700  1
  C  21  1  0.06491100  0.56674900  0.65947500  1
  C  22  1  0.08776000  0.55028200  0.66988700  1
  C  23  1  0.07575700  0.53059100  0.68341900  1
  C  24  1  0.04168100  0.52635600  0.68591900  1
  C  37  1  0.00230600  0.57594600  0.65210700  1
  C  38  1  0.88395100  0.54628000  0.66159300  1
  C  39  1  0.12130300  0.55227400  0.66636200  1
  C  40  1  0.01392100  0.54188100  0.58198400  1
  C  41  1  0.98856800  0.65862000  0.69493800  1
  C  46  1  0.00145100  0.42152800  0.37139100  1
  C  47  1  0.00179900  0.39470600  0.37818100  1
  C  48  1  0.00165800  0.37730000  0.36211300  1
  C  49  1  0.00116600  0.39282600  0.34483000  1
  C  50  1  0.99953600  0.37993000  0.32625600  1
  C  51  1  0.99861000  0.35123500  0.32519300  1
  C  52  1  0.99924200  0.33591900  0.34295700  1
  C  53  1  0.00082300  0.34882100  0.36145500  1
  C  54  1  0.00112800  0.38862800  0.39842000  1
  C  55  1  0.00001800  0.41010700  0.41202400  1
  C  56  1  0.99966900  0.43765400  0.40570800  1
  C  57  1  0.00041400  0.44310900  0.38509100  1
  C  58  1  0.02953900  0.43688000  0.34035500  1
  C  59  1  0.01825500  0.45633500  0.32688600  1
  C  60  1  0.98401900  0.45634400  0.32698200  1
  C  61  1  0.97297400  0.43690600  0.34053100  1
  C  62  1  0.96176800  0.47255700  0.31629700  1
  C  63  1  0.92773600  0.46933800  0.31968900  1
  C  64  1  0.91589700  0.45020000  0.33368600  1
  C  65  1  0.93878600  0.43349000  0.34384300  1
  C  66  1  0.06380100  0.43359100  0.34353000  1
  C  67  1  0.08650200  0.45041600  0.33333333  1
  C  68  1  0.07437800  0.46946700  0.31932900  1
  C  69  1  0.04029600  0.47259300  0.31609000  1
  C  82  1  0.00132200  0.42223000  0.34945000  1
  C  83  1  0.88247600  0.44842400  0.33758900  1
  C  84  1  0.12001500  0.44889600  0.33708400  1
  C  85  1  0.99786000  0.45882400  0.41931200  1
  C  86  1  0.99512600  0.33848500  0.30714300  1
  C  91  1  0.49716900  0.57949800  0.37414600  1
  C  92  1  0.49894900  0.60632200  0.38089600  1
  C  93  1  0.50334700  0.62338700  0.36485900  1
  C  94  1  0.50414600  0.60763300  0.34768000  1
  C  95  1  0.50905300  0.62010000  0.32916700  1
  C  96  1  0.51282600  0.64861200  0.32809300  1
  C  97  1  0.51203000  0.66420000  0.34571200  1
  C  98  1  0.50725900  0.65169400  0.36416000  1
  C  99  1  0.49621200  0.61265400  0.40105400  1
  C  100  1  0.49167300  0.59140400  0.41460300  1
  C  101  1  0.49008800  0.56404400  0.40813500  1
  C  102  1  0.49251800  0.55812300  0.38771300  1
  C  103  1  0.47202000  0.56540000  0.34205900  1
  C  104  1  0.48312600  0.54541800  0.32897000  1
  C  105  1  0.51718800  0.54322000  0.33067500  1
  C  106  1  0.52814500  0.56176900  0.34488000  1
  C  107  1  0.53904800  0.52477300  0.32177400  1
  C  108  1  0.57243200  0.52498400  0.32753300  1
  C  109  1  0.58422500  0.54347800  0.34203200  1
  C  110  1  0.56168500  0.56213200  0.35057900  1
  C  111  1  0.43781500  0.56900700  0.34519700  1
  C  112  1  0.41467200  0.55210500  0.33532800  1
  C  113  1  0.42676600  0.53277700  0.32148000  1
  C  114  1  0.46082500  0.52931700  0.31825000  1
  C  127  1  0.50028200  0.57842900  0.35232100  1
  C  128  1  0.61638800  0.54182200  0.34902300  1
  C  129  1  0.38172000  0.55201700  0.34127000  1
  C  130  1  0.48525000  0.54370800  0.42176100  1
  C  131  1  0.51772600  0.66101900  0.31010400  1
  C  136  1  0.50115200  0.41663700  0.62930800  1
  C  137  1  0.50090700  0.38970500  0.62277000  1
  C  138  1  0.50099400  0.37264500  0.63902700  1
  C  139  1  0.50138400  0.38855300  0.65613000  1
  C  140  1  0.50301400  0.37607900  0.67484700  1
  C  141  1  0.50404200  0.34742300  0.67622800  1
  C  142  1  0.50350600  0.33169700  0.65865600  1
  C  143  1  0.50192300  0.34418600  0.64000800  1
  C  144  1  0.50171100  0.38329900  0.60258600  1
  C  145  1  0.50294700  0.40457300  0.58880900  1
  C  146  1  0.50328300  0.43220300  0.59492900  1
  C  147  1  0.50226400  0.43799800  0.61547200  1
  C  148  1  0.47294200  0.43274300  0.66004900  1
  C  149  1  0.48412200  0.45218300  0.67354200  1
  C  150  1  0.51841400  0.45219000  0.67350700  1
  C  151  1  0.52946500  0.43281500  0.65992700  1
  C  152  1  0.54059800  0.46976200  0.68303200  1
  C  153  1  0.57438300  0.46808500  0.67833700  1
  C  154  1  0.58628000  0.44903800  0.66424200  1
  C  155  1  0.56340100  0.43098200  0.65531400  1
  C  156  1  0.43893300  0.43091400  0.65558800  1
  C  157  1  0.41611000  0.44889000  0.66467500  1
  C  158  1  0.42817300  0.46782700  0.67880500  1
  C  159  1  0.46202000  0.46955800  0.68331700  1
  C  172  1  0.50118400  0.41784600  0.65121600  1
  C  173  1  0.61872400  0.45003200  0.65753600  1
  C  174  1  0.38356500  0.45001200  0.65810100  1
  C  175  1  0.50522100  0.45325600  0.58128800  1
  C  176  1  0.50746600  0.33511800  0.69441900  1
  C  181  1  0.00158200  0.07687600  0.13016000  1
  C  182  1  0.99987200  0.10377500  0.12356500  1
  C  183  1  0.99830800  0.12088700  0.13976900  1
  C  184  1  0.99913700  0.10513100  0.15692400  1
  C  185  1  0.99820500  0.11777300  0.17560600  1
  C  186  1  0.99663700  0.14645900  0.17698900  1
  C  187  1  0.99546600  0.16192400  0.15927100  1
  C  188  1  0.99638900  0.14930600  0.14065700  1
  C  189  1  0.00077800  0.11024300  0.10337800  1
  C  190  1  0.00353000  0.08906600  0.08960800  1
  C  191  1  0.00517200  0.06158600  0.09583400  1
  C  192  1  0.00443500  0.05556900  0.11632100  1
  C  193  1  0.02932900  0.06177000  0.16135400  1
  C  194  1  0.01840600  0.04174000  0.17448000  1
  C  195  1  0.98419100  0.04083000  0.17401300  1
  C  196  1  0.97276800  0.06022000  0.16054400  1
  C  197  1  0.96229100  0.02386700  0.18433200  1
  C  198  1  0.92822900  0.02638700  0.18074000  1
  C  199  1  0.91595100  0.04552200  0.16686700  1
  C  200  1  0.93851600  0.06289800  0.15702500  1
  C  201  1  0.06353900  0.06581300  0.15844000  1
  C  202  1  0.08656100  0.04922200  0.16861500  1
  C  203  1  0.07477800  0.02965400  0.18231200  1
  C  204  1  0.04074900  0.02575000  0.18527400  1
  C  217  1  0.00079600  0.07581900  0.15208600  1
  C  218  1  0.88240000  0.04701700  0.16309800  1
  C  219  1  0.12005200  0.05125400  0.16489300  1
  C  220  1  0.00966100  0.04140500  0.08193200  1
  C  221  1  0.99602700  0.15879500  0.19541100  1
  C  226  1  0.99895400  0.92115700  0.87149000  1
  C  227  1  0.99978600  0.89436100  0.87832300  1
  C  228  1  0.00271400  0.87699300  0.86232600  1
  C  229  1  0.00332700  0.89249200  0.84504800  1
  C  230  1  0.00643000  0.87962600  0.82653700  1
  C  231  1  0.00900100  0.85096100  0.82541700  1
  C  232  1  0.00858100  0.83575900  0.84327500  1
  C  233  1  0.00536400  0.84859900  0.86172100  1
  C  234  1  0.99755800  0.88827400  0.89852100  1
  C  235  1  0.99459000  0.90973000  0.91204700  1
  C  236  1  0.99410800  0.93724900  0.90568900  1
  C  237  1  0.99610600  0.94272100  0.88511000  1
  C  238  1  0.02913900  0.93760400  0.84142500  1
  C  239  1  0.01803000  0.95654600  0.82752600  1
  C  240  1  0.98386900  0.95526500  0.82651700  1
  C  241  1  0.97269600  0.93540300  0.83969900  1
  C  242  1  0.96174700  0.97083100  0.81524000  1
  C  243  1  0.92765700  0.96673600  0.81781500  1
  C  244  1  0.91563400  0.94737300  0.83158600  1
  C  245  1  0.93844400  0.93114300  0.84221700  1
  C  246  1  0.06326200  0.93523800  0.84543200  1
  C  247  1  0.08600500  0.95250200  0.83563800  1
  C  248  1  0.07406600  0.97124500  0.82138100  1
  C  249  1  0.04012800  0.97344400  0.81730600  1
  C  262  1  0.00099600  0.92185900  0.84958500  1
  C  263  1  0.88211700  0.94546500  0.83515900  1
  C  264  1  0.11943400  0.95116500  0.83974800  1
  C  265  1  0.99148900  0.95838200  0.91924900  1
  C  266  1  0.01183700  0.83846900  0.80710100  1
  C  271  1  0.50015300  0.07944800  0.87436400  1
  C  272  1  0.50208600  0.10618300  0.88128400  1
  C  273  1  0.50460300  0.12356200  0.86528100  1
  C  274  1  0.50408900  0.10809200  0.84797600  1
  C  275  1  0.50594300  0.12098000  0.82942700  1
  C  276  1  0.50806200  0.14964000  0.82835900  1
  C  277  1  0.50894700  0.16487100  0.84617300  1
  C  278  1  0.50714000  0.15197100  0.86466700  1
  C  279  1  0.50053900  0.11220200  0.90153400  1
  C  280  1  0.49697600  0.09072900  0.91499800  1
  C  281  1  0.49515900  0.06344700  0.90836300  1
  C  282  1  0.49652900  0.05784600  0.88785400  1
  C  283  1  0.47309100  0.06524200  0.84281800  1
  C  284  1  0.48391200  0.04560100  0.82937200  1
  C  285  1  0.51813200  0.04419100  0.83015700  1
  C  286  1  0.52949000  0.06283700  0.84418000  1
  C  287  1  0.53990300  0.02627200  0.82063200  1
  C  288  1  0.57358900  0.02693400  0.82570100  1
  C  289  1  0.58579300  0.04533300  0.84015100  1
  C  290  1  0.56333400  0.06363200  0.84919200  1
  C  291  1  0.43901200  0.06823500  0.84668700  1
  C  292  1  0.41574500  0.05111400  0.83713600  1
  C  293  1  0.42748600  0.03210000  0.82295800  1
  C  294  1  0.46141100  0.02929400  0.81897100  1
  C  307  1  0.50162400  0.07874200  0.85246900  1
  C  308  1  0.61822000  0.04372000  0.84678800  1
  C  309  1  0.38302600  0.05073000  0.84347000  1
  C  310  1  0.49052600  0.04292100  0.92188700  1
  C  311  1  0.50927400  0.16220300  0.81010100  1
  C  316  1  0.50386400  0.91643400  0.12938900  1
  C  317  1  0.50253100  0.88956600  0.12274800  1
  C  318  1  0.49854600  0.87254900  0.13885000  1
  C  319  1  0.49790800  0.88836700  0.15598200  1
  C  320  1  0.49383400  0.87589900  0.17456300  1
  C  321  1  0.49039000  0.84732400  0.17587900  1
  C  322  1  0.49078300  0.83178600  0.15818600  1
  C  323  1  0.49494400  0.84423400  0.13966400  1
  C  324  1  0.50547100  0.88314900  0.10263300  1
  C  325  1  0.50964700  0.90436400  0.08901600  1
  C  326  1  0.51060900  0.93193100  0.09523100  1
  C  327  1  0.50788200  0.93775200  0.11570600  1
  C  328  1  0.47321900  0.93399500  0.15890300  1
  C  329  1  0.48425800  0.95262300  0.17303200  1
  C  330  1  0.51840100  0.95082000  0.17440800  1
  C  331  1  0.52950500  0.93094700  0.16123300  1
  C  332  1  0.54069200  0.96713900  0.18496000  1
  C  333  1  0.57472200  0.96410700  0.18140300  1
  C  334  1  0.58680100  0.94495000  0.16742900  1
  C  335  1  0.56369700  0.92776900  0.15777500  1
  C  336  1  0.43957300  0.93348300  0.15340800  1
  C  337  1  0.41700300  0.95203200  0.16207900  1
  C  338  1  0.42889700  0.97045900  0.17660200  1
  C  339  1  0.46237600  0.97084700  0.18214800  1
  C  352  1  0.50117400  0.91760000  0.15123800  1
  C  353  1  0.61963900  0.94537100  0.16124600  1
  C  354  1  0.38478100  0.95378100  0.15511000  1
  C  355  1  0.51415600  0.95288200  0.08166900  1
  C  356  1  0.48696600  0.83519600  0.19425200  1
  C  361  1  0.99910700  0.52795900  0.54967300  1
  C  362  1  0.02917600  0.52667400  0.53912900  1
  C  363  1  0.03082000  0.51566300  0.51984100  1
  C  364  1  0.00119500  0.50565300  0.51108500  1
  C  365  1  0.97115400  0.50681200  0.52173800  1
  C  366  1  0.97001300  0.51838700  0.54068100  1
  C  369  1  0.00055200  0.49405700  0.49189500  1
  C  370  1  0.01120200  0.46689400  0.49007300  1
  C  371  1  0.01185200  0.45418400  0.47155500  1
  C  372  1  0.00197500  0.46830600  0.45448400  1
  C  373  1  0.99123400  0.49545700  0.45624700  1
  C  374  1  0.99052500  0.50883600  0.47479800  1
  C  379  1  0.06348200  0.51631200  0.50963400  1
  C  380  1  0.97921400  0.53764800  0.47641600  1
  C  391  1  0.50215800  0.52761200  0.45304400  1
  C  392  1  0.47259600  0.52571400  0.46403800  1
  C  393  1  0.47183500  0.51335800  0.48289200  1
  C  394  1  0.50183200  0.50262000  0.49067000  1
  C  395  1  0.53135400  0.50437000  0.47956700  1
  C  396  1  0.53162100  0.51723900  0.46107600  1
  C  399  1  0.50341700  0.49009300  0.50947300  1
  C  400  1  0.49329200  0.46274200  0.51071200  1
  C  401  1  0.49295400  0.44932800  0.52895700  1
  C  402  1  0.50258600  0.46296700  0.54627900  1
  C  403  1  0.51303100  0.49025300  0.54505000  1
  C  404  1  0.51342000  0.50434200  0.52680000  1
  C  409  1  0.43968900  0.51336700  0.49368700  1
  C  410  1  0.52428800  0.53332200  0.52574100  1
  C  421  1  0.99511900  0.02758100  0.04955600  1
  C  422  1  0.02526200  0.02644400  0.03906900  1
  C  423  1  0.02708200  0.01551800  0.01976000  1
  C  424  1  0.99755500  0.00546700  0.01091000  1
  C  425  1  0.96745300  0.00646000  0.02151100  1
  C  426  1  0.96614000  0.01794000  0.04047900  1
  C  429  1  0.99701200  0.99399000  0.99168200  1
  C  430  1  0.00780700  0.96687700  0.98977100  1
  C  431  1  0.00817800  0.95419100  0.97124400  1
  C  432  1  0.99778200  0.96825600  0.95425800  1
  C  433  1  0.98701000  0.99538900  0.95609800  1
  C  434  1  0.98665600  0.00876800  0.97465300  1
  C  439  1  0.05979300  0.01633500  0.00961600  1
  C  440  1  0.97535800  0.03757600  0.97634500  1
  C  451  1  0.50683800  0.02701700  0.95334200  1
  C  452  1  0.47710300  0.02513100  0.96417200  1
  C  453  1  0.47609200  0.01292900  0.98307700  1
  C  454  1  0.50601500  0.00235900  0.99107700  1
  C  455  1  0.53568600  0.00403200  0.98010400  1
  C  456  1  0.53619700  0.01673300  0.96155500  1
  C  459  1  0.50747100  0.99011000  0.00998400  1
  C  460  1  0.49729300  0.96279000  0.01142100  1
  C  461  1  0.49732000  0.94952800  0.02972500  1
  C  462  1  0.50758500  0.96322800  0.04689200  1
  C  463  1  0.51784300  0.99054500  0.04549000  1
  C  464  1  0.51774600  0.00451100  0.02718800  1
  C  469  1  0.44380100  0.01298800  0.99371200  1
  C  470  1  0.52839000  0.03353600  0.02595300  1
  C  481  1  0.32996600  0.46821800  0.66465900  1
  C  482  1  0.31992100  0.47920500  0.64633800  1
  C  483  1  0.28817400  0.49080300  0.64374500  1
  C  484  1  0.26618500  0.49128300  0.66017300  1
  C  485  1  0.27611900  0.47987800  0.67839700  1
  C  486  1  0.30786900  0.46886400  0.68069000  1
  C  489  1  0.23449400  0.50356400  0.65946000  1
  C  490  1  0.20774800  0.48731200  0.65317900  1
  C  491  1  0.17533600  0.49735200  0.65385000  1
  C  492  1  0.16903600  0.52382300  0.66065500  1
  C  493  1  0.19581700  0.54033400  0.66653700  1
  C  494  1  0.22881500  0.53067300  0.66599400  1
  C  499  1  0.28032700  0.50287000  0.62410400  1
  C  500  1  0.25678500  0.54810800  0.67293500  1
  C  511  1  0.32857500  0.53278500  0.33560800  1
  C  512  1  0.31893000  0.52238000  0.35418100  1
  C  513  1  0.28721700  0.51095200  0.35722000  1
  C  514  1  0.26483000  0.51011000  0.34099500  1
  C  515  1  0.27437800  0.52093000  0.32250700  1
  C  516  1  0.30615000  0.53170600  0.31975900  1
  C  519  1  0.23316200  0.49788000  0.34215900  1
  C  520  1  0.20654900  0.51435900  0.34833200  1
  C  521  1  0.17411700  0.50433200  0.34802900  1
  C  522  1  0.16768900  0.47763000  0.34177900  1
  C  523  1  0.19435300  0.46091800  0.33600100  1
  C  524  1  0.22736400  0.47055900  0.33616400  1
  C  529  1  0.27985200  0.49937600  0.37708500  1
  C  530  1  0.25519000  0.45287700  0.32934000  1
  C  541  1  0.67102700  0.52679300  0.34136600  1
  C  542  1  0.68209100  0.51525600  0.35929800  1
  C  543  1  0.71456500  0.50490600  0.36136700  1
  C  544  1  0.73621000  0.50627900  0.34481000  1
  C  545  1  0.72528500  0.51828400  0.32700200  1
  C  546  1  0.69287500  0.52809300  0.32523400  1
  C  549  1  0.76840300  0.49494200  0.34489200  1
  C  550  1  0.79470400  0.51175700  0.35105900  1
  C  551  1  0.82744400  0.50253600  0.34995800  1
  C  552  1  0.83447700  0.47630200  0.34293500  1
  C  553  1  0.80815200  0.45933300  0.33700300  1
  C  554  1  0.77485200  0.46815400  0.33794800  1
  C  559  1  0.72356400  0.49216800  0.38060500  1
  C  560  1  0.74736100  0.45021400  0.33099100  1
  C  571  1  0.67260900  0.46752100  0.66374300  1
  C  572  1  0.68232800  0.47856700  0.64537700  1
  C  573  1  0.71445900  0.48920800  0.64239600  1
  C  574  1  0.73717000  0.48859900  0.65846300  1
  C  575  1  0.72752000  0.47716800  0.67673500  1
  C  576  1  0.69539400  0.46711300  0.67942500  1
  C  579  1  0.76931100  0.49995300  0.65736200  1
  C  580  1  0.79516800  0.48293000  0.65083300  1
  C  581  1  0.82798500  0.49208900  0.65108300  1
  C  582  1  0.83553900  0.51847300  0.65759700  1
  C  583  1  0.80962300  0.53568800  0.66380800  1
  C  584  1  0.77626000  0.52692100  0.66374000  1
  C  589  1  0.72200200  0.50141400  0.62275700  1
  C  590  1  0.74927200  0.54510400  0.67105100  1
  C  601  1  0.33056200  0.97037400  0.16228400  1
  C  602  1  0.31993400  0.98155300  0.14414200  1
  C  603  1  0.28781000  0.99255100  0.14183900  1
  C  604  1  0.26604400  0.99222400  0.15837400  1
  C  605  1  0.27656400  0.98063100  0.17641400  1
  C  606  1  0.30864700  0.97018200  0.17841300  1
  C  609  1  0.23403200  0.00395100  0.15796700  1
  C  610  1  0.20757300  0.98732200  0.15177400  1
  C  611  1  0.17494500  0.99686600  0.15262100  1
  C  612  1  0.16814900  0.02322200  0.15948900  1
  C  613  1  0.19463000  0.04007300  0.16534900  1
  C  614  1  0.22782900  0.03090900  0.16464800  1
  C  619  1  0.27929300  0.00480800  0.12236100  1
  C  620  1  0.25548000  0.04869900  0.17157100  1
  C  631  1  0.32943700  0.03247500  0.83752500  1
  C  632  1  0.31983200  0.02153900  0.85594400  1
  C  633  1  0.28791700  0.01047200  0.85893700  1
  C  634  1  0.26528700  0.01054100  0.84282300  1
  C  635  1  0.27482100  0.02183400  0.82448400  1
  C  636  1  0.30677100  0.03226700  0.82177700  1
  C  639  1  0.23335000  0.99879900  0.84395400  1
  C  640  1  0.20717700  0.01556100  0.85039600  1
  C  641  1  0.17452700  0.00600900  0.85017100  1
  C  642  1  0.16746200  0.97948400  0.84377100  1
  C  643  1  0.19368100  0.96251600  0.83766600  1
  C  644  1  0.22688900  0.97168200  0.83772100  1
  C  649  1  0.28054900  0.99836200  0.87863200  1
  C  650  1  0.25421900  0.95374700  0.83054000  1
  C  661  1  0.67225800  0.02715900  0.83922200  1
  C  662  1  0.68321800  0.01600000  0.85730200  1
  C  663  1  0.71538600  0.00502600  0.85940700  1
  C  664  1  0.73684300  0.00535500  0.84273000  1
  C  665  1  0.72602900  0.01698500  0.82476600  1
  C  666  1  0.69390400  0.02741100  0.82296600  1
  C  669  1  0.76876200  0.99346700  0.84289800  1
  C  670  1  0.79548300  0.00996000  0.84887500  1
  C  671  1  0.82799900  0.00021500  0.84780000  1
  C  672  1  0.83441800  0.97378000  0.84095800  1
  C  673  1  0.80767800  0.95710300  0.83526400  1
  C  674  1  0.77457900  0.96645600  0.83620700  1
  C  679  1  0.72423400  0.99274000  0.87882400  1
  C  680  1  0.74662900  0.94880700  0.82952600  1
  C  691  1  0.67269300  0.96501000  0.16661900  1
  C  692  1  0.68196200  0.97547100  0.14799500  1
  C  693  1  0.71368500  0.98677600  0.14472000  1
  C  694  1  0.73647000  0.98744000  0.16075200  1
  C  695  1  0.72726000  0.97659900  0.17929700  1
  C  696  1  0.69549300  0.96592300  0.18228100  1
  C  699  1  0.76833100  0.99930300  0.15929600  1
  C  700  1  0.79449000  0.98251200  0.15287500  1
  C  701  1  0.82711800  0.99212800  0.15290100  1
  C  702  1  0.83421600  0.01874400  0.15910100  1
  C  703  1  0.80799200  0.03575600  0.16514000  1
  C  704  1  0.77480200  0.02652400  0.16528100  1
  C  709  1  0.72068600  0.99836700  0.12481300  1
  C  710  1  0.74749400  0.04452500  0.17239700  1
  C  721  1  0.00613300  0.79601900  0.78988000  1
  C  722  1  0.00635800  0.80409100  0.76985100  1
  C  723  1  0.00524300  0.78486000  0.75433400  1
  C  724  1  0.00396500  0.75679200  0.75929500  1
  C  725  1  0.00389100  0.74874400  0.77932000  1
  C  726  1  0.00472700  0.76819300  0.79443300  1
  C  729  1  0.00270900  0.73607600  0.74481200  1
  C  730  1  0.03279300  0.72827300  0.73585200  1
  C  731  1  0.03308900  0.70893000  0.72066200  1
  C  732  1  0.00349500  0.69654200  0.71455600  1
  C  733  1  0.97339500  0.70430300  0.72350800  1
  C  734  1  0.97232300  0.72418900  0.73859200  1
  C  739  1  0.00496100  0.79540400  0.73368400  1
  C  740  1  0.94010500  0.73271600  0.74752500  1
  C  751  1  0.00642000  0.20048900  0.21272000  1
  C  752  1  0.00597500  0.19226500  0.23271200  1
  C  753  1  0.00660300  0.21139700  0.24830700  1
  C  754  1  0.00791600  0.23949700  0.24345100  1
  C  755  1  0.00923100  0.24765600  0.22346600  1
  C  756  1  0.00856100  0.22831900  0.20827700  1
  C  759  1  0.00725600  0.26017100  0.25797500  1
  C  760  1  0.03743800  0.26721300  0.26714700  1
  C  761  1  0.03815300  0.28658000  0.28232400  1
  C  762  1  0.00892000  0.29975100  0.28818800  1
  C  763  1  0.97871800  0.29267600  0.27905600  1
  C  764  1  0.97720100  0.27281800  0.26397500  1
  C  769  1  0.00532500  0.20075500  0.26891400  1
  C  770  1  0.94485900  0.26518100  0.25477000  1
  C  781  1  0.49495400  0.79381600  0.21231200  1
  C  782  1  0.49498100  0.80278500  0.23213600  1
  C  783  1  0.49678300  0.78428200  0.24808400  1
  C  784  1  0.49852400  0.75603600  0.24376300  1
  C  785  1  0.49835600  0.74708500  0.22394200  1
  C  786  1  0.49686200  0.76583200  0.20838800  1
  C  789  1  0.50056800  0.73602300  0.25871100  1
  C  790  1  0.47084100  0.72814900  0.26804700  1
  C  791  1  0.47130100  0.70949000  0.28367500  1
  C  792  1  0.50130800  0.69786700  0.28986200  1
  C  793  1  0.53106000  0.70576000  0.28056300  1
  C  794  1  0.53136400  0.72495500  0.26500300  1
  C  799  1  0.49733000  0.79574600  0.26847100  1
  C  800  1  0.56318800  0.73355500  0.25561800  1
  C  811  1  0.49517400  0.20220500  0.79215200  1
  C  812  1  0.49489700  0.19291800  0.77240700  1
  C  813  1  0.49398900  0.21120400  0.75630300  1
  C  814  1  0.49306700  0.23953400  0.76040900  1
  C  815  1  0.49224200  0.24875800  0.78015900  1
  C  816  1  0.49312900  0.23023100  0.79586900  1
  C  819  1  0.49402900  0.25939800  0.74533100  1
  C  820  1  0.46385400  0.26670000  0.73626500  1
  C  821  1  0.46342600  0.28526300  0.72056500  1
  C  822  1  0.49297100  0.29736700  0.71407300  1
  C  823  1  0.52316300  0.28997700  0.72308100  1
  C  824  1  0.52438000  0.27089400  0.73868500  1
  C  829  1  0.49464500  0.19947300  0.73599900  1
  C  830  1  0.55668300  0.26294500  0.74780400  1
  C  841  1  0.00438300  0.21196900  0.63021200  1
  C  842  1  0.00295400  0.23890100  0.62365800  1
  C  843  1  0.99995000  0.25590300  0.63984600  1
  C  844  1  0.99957800  0.24004500  0.65697300  1
  C  845  1  0.99590700  0.25249300  0.67560900  1
  C  846  1  0.99295200  0.28107000  0.67686200  1
  C  847  1  0.99334100  0.29672900  0.65926300  1
  C  848  1  0.99690400  0.28427100  0.64070700  1
  C  849  1  0.00474600  0.24546800  0.60350800  1
  C  850  1  0.00809900  0.22436000  0.58973100  1
  C  851  1  0.00938000  0.19685200  0.59591200  1
  C  852  1  0.00783900  0.19073000  0.61636600  1
  C  853  1  0.03065900  0.19719400  0.66190200  1
  C  854  1  0.01953600  0.17696500  0.67480700  1
  C  855  1  0.98539500  0.17550400  0.67368900  1
  C  856  1  0.97424100  0.19470900  0.65999900  1
  C  857  1  0.96334200  0.15830300  0.68367300  1
  C  858  1  0.92939800  0.16051700  0.67961200  1
  C  859  1  0.91740500  0.17958600  0.66560100  1
  C  860  1  0.94011600  0.19708700  0.65600700  1
  C  861  1  0.06491100  0.20160000  0.65947500  1
  C  862  1  0.08776000  0.18513300  0.66988700  1
  C  863  1  0.07575700  0.16544200  0.68341900  1
  C  864  1  0.04168100  0.16120700  0.68591900  1
  C  877  1  0.00230600  0.21079700  0.65210700  1
  C  878  1  0.88395100  0.18113100  0.66159300  1
  C  879  1  0.12130300  0.18712500  0.66636200  1
  C  880  1  0.01392100  0.17673200  0.58198400  1
  C  881  1  0.98856800  0.29347100  0.69493800  1
  C  886  1  0.00145100  0.05637900  0.37139100  1
  C  887  1  0.00179900  0.02955700  0.37818100  1
  C  888  1  0.00165800  0.01215100  0.36211300  1
  C  889  1  0.00116600  0.02767700  0.34483000  1
  C  890  1  0.99953600  0.01478100  0.32625600  1
  C  891  1  0.99861000  0.98608570  0.32519300  1
  C  892  1  0.99924200  0.97076970  0.34295700  1
  C  893  1  0.00082300  0.98367170  0.36145500  1
  C  894  1  0.00112800  0.02347900  0.39842000  1
  C  895  1  0.00001800  0.04495800  0.41202400  1
  C  896  1  0.99966900  0.07250500  0.40570800  1
  C  897  1  0.00041400  0.07796000  0.38509100  1
  C  898  1  0.02953900  0.07173100  0.34035500  1
  C  899  1  0.01825500  0.09118600  0.32688600  1
  C  900  1  0.98401900  0.09119500  0.32698200  1
  C  901  1  0.97297400  0.07175700  0.34053100  1
  C  902  1  0.96176800  0.10740800  0.31629700  1
  C  903  1  0.92773600  0.10418900  0.31968900  1
  C  904  1  0.91589700  0.08505100  0.33368600  1
  C  905  1  0.93878600  0.06834100  0.34384300  1
  C  906  1  0.06380100  0.06844200  0.34353000  1
  C  907  1  0.08650200  0.08526700  0.33333333  1
  C  908  1  0.07437800  0.10431800  0.31932900  1
  C  909  1  0.04029600  0.10744400  0.31609000  1
  C  922  1  0.00132200  0.05708100  0.34945000  1
  C  923  1  0.88247600  0.08327500  0.33758900  1
  C  924  1  0.12001500  0.08374700  0.33708400  1
  C  925  1  0.99786000  0.09367500  0.41931200  1
  C  926  1  0.99512600  0.97333570  0.30714300  1
  C  931  1  0.49716900  0.21434900  0.37414600  1
  C  932  1  0.49894900  0.24117300  0.38089600  1
  C  933  1  0.50334700  0.25823800  0.36485900  1
  C  934  1  0.50414600  0.24248400  0.34768000  1
  C  935  1  0.50905300  0.25495100  0.32916700  1
  C  936  1  0.51282600  0.28346300  0.32809300  1
  C  937  1  0.51203000  0.29905100  0.34571200  1
  C  938  1  0.50725900  0.28654500  0.36416000  1
  C  939  1  0.49621200  0.24750500  0.40105400  1
  C  940  1  0.49167300  0.22625500  0.41460300  1
  C  941  1  0.49008800  0.19889500  0.40813500  1
  C  942  1  0.49251800  0.19297400  0.38771300  1
  C  943  1  0.47202000  0.20025100  0.34205900  1
  C  944  1  0.48312600  0.18026900  0.32897000  1
  C  945  1  0.51718800  0.17807100  0.33067500  1
  C  946  1  0.52814500  0.19662000  0.34488000  1
  C  947  1  0.53904800  0.15962400  0.32177400  1
  C  948  1  0.57243200  0.15983500  0.32753300  1
  C  949  1  0.58422500  0.17832900  0.34203200  1
  C  950  1  0.56168500  0.19698300  0.35057900  1
  C  951  1  0.43781500  0.20385800  0.34519700  1
  C  952  1  0.41467200  0.18695600  0.33532800  1
  C  953  1  0.42676600  0.16762800  0.32148000  1
  C  954  1  0.46082500  0.16416800  0.31825000  1
  C  967  1  0.50028200  0.21328000  0.35232100  1
  C  968  1  0.61638800  0.17667300  0.34902300  1
  C  969  1  0.38172000  0.18686800  0.34127000  1
  C  970  1  0.48525000  0.17855900  0.42176100  1
  C  971  1  0.51772600  0.29587000  0.31010400  1
  C  976  1  0.50115200  0.05148800  0.62930800  1
  C  977  1  0.50090700  0.02455600  0.62277000  1
  C  978  1  0.50099400  0.00749600  0.63902700  1
  C  979  1  0.50138400  0.02340400  0.65613000  1
  C  980  1  0.50301400  0.01093000  0.67484700  1
  C  981  1  0.50404200  0.98227370  0.67622800  1
  C  982  1  0.50350600  0.96654770  0.65865600  1
  C  983  1  0.50192300  0.97903670  0.64000800  1
  C  984  1  0.50171100  0.01815000  0.60258600  1
  C  985  1  0.50294700  0.03942400  0.58880900  1
  C  986  1  0.50328300  0.06705400  0.59492900  1
  C  987  1  0.50226400  0.07284900  0.61547200  1
  C  988  1  0.47294200  0.06759400  0.66004900  1
  C  989  1  0.48412200  0.08703400  0.67354200  1
  C  990  1  0.51841400  0.08704100  0.67350700  1
  C  991  1  0.52946500  0.06766600  0.65992700  1
  C  992  1  0.54059800  0.10461300  0.68303200  1
  C  993  1  0.57438300  0.10293600  0.67833700  1
  C  994  1  0.58628000  0.08388900  0.66424200  1
  C  995  1  0.56340100  0.06583300  0.65531400  1
  C  996  1  0.43893300  0.06576500  0.65558800  1
  C  997  1  0.41611000  0.08374100  0.66467500  1
  C  998  1  0.42817300  0.10267800  0.67880500  1
  C  999  1  0.46202000  0.10440900  0.68331700  1
  C  1012  1  0.50118400  0.05269700  0.65121600  1
  C  1013  1  0.61872400  0.08488300  0.65753600  1
  C  1014  1  0.38356500  0.08486300  0.65810100  1
  C  1015  1  0.50522100  0.08810700  0.58128800  1
  C  1016  1  0.50746600  0.96996870  0.69441900  1
  C  1021  1  0.00158200  0.71172700  0.13016000  1
  C  1022  1  0.99987200  0.73862600  0.12356500  1
  C  1023  1  0.99830800  0.75573800  0.13976900  1
  C  1024  1  0.99913700  0.73998200  0.15692400  1
  C  1025  1  0.99820500  0.75262400  0.17560600  1
  C  1026  1  0.99663700  0.78131000  0.17698900  1
  C  1027  1  0.99546600  0.79677500  0.15927100  1
  C  1028  1  0.99638900  0.78415700  0.14065700  1
  C  1029  1  0.00077800  0.74509400  0.10337800  1
  C  1030  1  0.00353000  0.72391700  0.08960800  1
  C  1031  1  0.00517200  0.69643700  0.09583400  1
  C  1032  1  0.00443500  0.69042000  0.11632100  1
  C  1033  1  0.02932900  0.69662100  0.16135400  1
  C  1034  1  0.01840600  0.67659100  0.17448000  1
  C  1035  1  0.98419100  0.67568100  0.17401300  1
  C  1036  1  0.97276800  0.69507100  0.16054400  1
  C  1037  1  0.96229100  0.65871800  0.18433200  1
  C  1038  1  0.92822900  0.66123800  0.18074000  1
  C  1039  1  0.91595100  0.68037300  0.16686700  1
  C  1040  1  0.93851600  0.69774900  0.15702500  1
  C  1041  1  0.06353900  0.70066400  0.15844000  1
  C  1042  1  0.08656100  0.68407300  0.16861500  1
  C  1043  1  0.07477800  0.66450500  0.18231200  1
  C  1044  1  0.04074900  0.66060100  0.18527400  1
  C  1057  1  0.00079600  0.71067000  0.15208600  1
  C  1058  1  0.88240000  0.68186800  0.16309800  1
  C  1059  1  0.12005200  0.68610500  0.16489300  1
  C  1060  1  0.00966100  0.67625600  0.08193200  1
  C  1061  1  0.99602700  0.79364600  0.19541100  1
  C  1066  1  0.99895400  0.55600800  0.87149000  1
  C  1067  1  0.99978600  0.52921200  0.87832300  1
  C  1068  1  0.00271400  0.51184400  0.86232600  1
  C  1069  1  0.00332700  0.52734300  0.84504800  1
  C  1070  1  0.00643000  0.51447700  0.82653700  1
  C  1071  1  0.00900100  0.48581200  0.82541700  1
  C  1072  1  0.00858100  0.47061000  0.84327500  1
  C  1073  1  0.00536400  0.48345000  0.86172100  1
  C  1074  1  0.99755800  0.52312500  0.89852100  1
  C  1075  1  0.99459000  0.54458100  0.91204700  1
  C  1076  1  0.99410800  0.57210000  0.90568900  1
  C  1077  1  0.99610600  0.57757200  0.88511000  1
  C  1078  1  0.02913900  0.57245500  0.84142500  1
  C  1079  1  0.01803000  0.59139700  0.82752600  1
  C  1080  1  0.98386900  0.59011600  0.82651700  1
  C  1081  1  0.97269600  0.57025400  0.83969900  1
  C  1082  1  0.96174700  0.60568200  0.81524000  1
  C  1083  1  0.92765700  0.60158700  0.81781500  1
  C  1084  1  0.91563400  0.58222400  0.83158600  1
  C  1085  1  0.93844400  0.56599400  0.84221700  1
  C  1086  1  0.06326200  0.57008900  0.84543200  1
  C  1087  1  0.08600500  0.58735300  0.83563800  1
  C  1088  1  0.07406600  0.60609600  0.82138100  1
  C  1089  1  0.04012800  0.60829500  0.81730600  1
  C  1102  1  0.00099600  0.55671000  0.84958500  1
  C  1103  1  0.88211700  0.58031600  0.83515900  1
  C  1104  1  0.11943400  0.58601600  0.83974800  1
  C  1105  1  0.99148900  0.59323300  0.91924900  1
  C  1106  1  0.01183700  0.47332000  0.80710100  1
  C  1111  1  0.50015300  0.71429900  0.87436400  1
  C  1112  1  0.50208600  0.74103400  0.88128400  1
  C  1113  1  0.50460300  0.75841300  0.86528100  1
  C  1114  1  0.50408900  0.74294300  0.84797600  1
  C  1115  1  0.50594300  0.75583100  0.82942700  1
  C  1116  1  0.50806200  0.78449100  0.82835900  1
  C  1117  1  0.50894700  0.79972200  0.84617300  1
  C  1118  1  0.50714000  0.78682200  0.86466700  1
  C  1119  1  0.50053900  0.74705300  0.90153400  1
  C  1120  1  0.49697600  0.72558000  0.91499800  1
  C  1121  1  0.49515900  0.69829800  0.90836300  1
  C  1122  1  0.49652900  0.69269700  0.88785400  1
  C  1123  1  0.47309100  0.70009300  0.84281800  1
  C  1124  1  0.48391200  0.68045200  0.82937200  1
  C  1125  1  0.51813200  0.67904200  0.83015700  1
  C  1126  1  0.52949000  0.69768800  0.84418000  1
  C  1127  1  0.53990300  0.66112300  0.82063200  1
  C  1128  1  0.57358900  0.66178500  0.82570100  1
  C  1129  1  0.58579300  0.68018400  0.84015100  1
  C  1130  1  0.56333400  0.69848300  0.84919200  1
  C  1131  1  0.43901200  0.70308600  0.84668700  1
  C  1132  1  0.41574500  0.68596500  0.83713600  1
  C  1133  1  0.42748600  0.66695100  0.82295800  1
  C  1134  1  0.46141100  0.66414500  0.81897100  1
  C  1147  1  0.50162400  0.71359300  0.85246900  1
  C  1148  1  0.61822000  0.67857100  0.84678800  1
  C  1149  1  0.38302600  0.68558100  0.84347000  1
  C  1150  1  0.49052600  0.67777200  0.92188700  1
  C  1151  1  0.50927400  0.79705400  0.81010100  1
  C  1156  1  0.50386400  0.55128500  0.12938900  1
  C  1157  1  0.50253100  0.52441700  0.12274800  1
  C  1158  1  0.49854600  0.50740000  0.13885000  1
  C  1159  1  0.49790800  0.52321800  0.15598200  1
  C  1160  1  0.49383400  0.51075000  0.17456300  1
  C  1161  1  0.49039000  0.48217500  0.17587900  1
  C  1162  1  0.49078300  0.46663700  0.15818600  1
  C  1163  1  0.49494400  0.47908500  0.13966400  1
  C  1164  1  0.50547100  0.51800000  0.10263300  1
  C  1165  1  0.50964700  0.53921500  0.08901600  1
  C  1166  1  0.51060900  0.56678200  0.09523100  1
  C  1167  1  0.50788200  0.57260300  0.11570600  1
  C  1168  1  0.47321900  0.56884600  0.15890300  1
  C  1169  1  0.48425800  0.58747400  0.17303200  1
  C  1170  1  0.51840100  0.58567100  0.17440800  1
  C  1171  1  0.52950500  0.56579800  0.16123300  1
  C  1172  1  0.54069200  0.60199000  0.18496000  1
  C  1173  1  0.57472200  0.59895800  0.18140300  1
  C  1174  1  0.58680100  0.57980100  0.16742900  1
  C  1175  1  0.56369700  0.56262000  0.15777500  1
  C  1176  1  0.43957300  0.56833400  0.15340800  1
  C  1177  1  0.41700300  0.58688300  0.16207900  1
  C  1178  1  0.42889700  0.60531000  0.17660200  1
  C  1179  1  0.46237600  0.60569800  0.18214800  1
  C  1192  1  0.50117400  0.55245100  0.15123800  1
  C  1193  1  0.61963900  0.58022200  0.16124600  1
  C  1194  1  0.38478100  0.58863200  0.15511000  1
  C  1195  1  0.51415600  0.58773300  0.08166900  1
  C  1196  1  0.48696600  0.47004700  0.19425200  1
  C  1201  1  0.99910700  0.16281000  0.54967300  1
  C  1202  1  0.02917600  0.16152500  0.53912900  1
  C  1203  1  0.03082000  0.15051400  0.51984100  1
  C  1204  1  0.00119500  0.14050400  0.51108500  1
  C  1205  1  0.97115400  0.14166300  0.52173800  1
  C  1206  1  0.97001300  0.15323800  0.54068100  1
  C  1209  1  0.00055200  0.12890800  0.49189500  1
  C  1210  1  0.01120200  0.10174500  0.49007300  1
  C  1211  1  0.01185200  0.08903500  0.47155500  1
  C  1212  1  0.00197500  0.10315700  0.45448400  1
  C  1213  1  0.99123400  0.13030800  0.45624700  1
  C  1214  1  0.99052500  0.14368700  0.47479800  1
  C  1219  1  0.06348200  0.15116300  0.50963400  1
  C  1220  1  0.97921400  0.17249900  0.47641600  1
  C  1231  1  0.50215800  0.16246300  0.45304400  1
  C  1232  1  0.47259600  0.16056500  0.46403800  1
  C  1233  1  0.47183500  0.14820900  0.48289200  1
  C  1234  1  0.50183200  0.13747100  0.49067000  1
  C  1235  1  0.53135400  0.13922100  0.47956700  1
  C  1236  1  0.53162100  0.15209000  0.46107600  1
  C  1239  1  0.50341700  0.12494400  0.50947300  1
  C  1240  1  0.49329200  0.09759300  0.51071200  1
  C  1241  1  0.49295400  0.08417900  0.52895700  1
  C  1242  1  0.50258600  0.09781800  0.54627900  1
  C  1243  1  0.51303100  0.12510400  0.54505000  1
  C  1244  1  0.51342000  0.13919300  0.52680000  1
  C  1249  1  0.43968900  0.14821800  0.49368700  1
  C  1250  1  0.52428800  0.16817300  0.52574100  1
  C  1261  1  0.99511900  0.66243200  0.04955600  1
  C  1262  1  0.02526200  0.66129500  0.03906900  1
  C  1263  1  0.02708200  0.65036900  0.01976000  1
  C  1264  1  0.99755500  0.64031800  0.01091000  1
  C  1265  1  0.96745300  0.64131100  0.02151100  1
  C  1266  1  0.96614000  0.65279100  0.04047900  1
  C  1269  1  0.99701200  0.62884100  0.99168200  1
  C  1270  1  0.00780700  0.60172800  0.98977100  1
  C  1271  1  0.00817800  0.58904200  0.97124400  1
  C  1272  1  0.99778200  0.60310700  0.95425800  1
  C  1273  1  0.98701000  0.63024000  0.95609800  1
  C  1274  1  0.98665600  0.64361900  0.97465300  1
  C  1279  1  0.05979300  0.65118600  0.00961600  1
  C  1280  1  0.97535800  0.67242700  0.97634500  1
  C  1291  1  0.50683800  0.66186800  0.95334200  1
  C  1292  1  0.47710300  0.65998200  0.96417200  1
  C  1293  1  0.47609200  0.64778000  0.98307700  1
  C  1294  1  0.50601500  0.63721000  0.99107700  1
  C  1295  1  0.53568600  0.63888300  0.98010400  1
  C  1296  1  0.53619700  0.65158400  0.96155500  1
  C  1299  1  0.50747100  0.62496100  0.00998400  1
  C  1300  1  0.49729300  0.59764100  0.01142100  1
  C  1301  1  0.49732000  0.58437900  0.02972500  1
  C  1302  1  0.50758500  0.59807900  0.04689200  1
  C  1303  1  0.51784300  0.62539600  0.04549000  1
  C  1304  1  0.51774600  0.63936200  0.02718800  1
  C  1309  1  0.44380100  0.64783900  0.99371200  1
  C  1310  1  0.52839000  0.66838700  0.02595300  1
  C  1321  1  0.32996600  0.10306900  0.66465900  1
  C  1322  1  0.31992100  0.11405600  0.64633800  1
  C  1323  1  0.28817400  0.12565400  0.64374500  1
  C  1324  1  0.26618500  0.12613400  0.66017300  1
  C  1325  1  0.27611900  0.11472900  0.67839700  1
  C  1326  1  0.30786900  0.10371500  0.68069000  1
  C  1329  1  0.23449400  0.13841500  0.65946000  1
  C  1330  1  0.20774800  0.12216300  0.65317900  1
  C  1331  1  0.17533600  0.13220300  0.65385000  1
  C  1332  1  0.16903600  0.15867400  0.66065500  1
  C  1333  1  0.19581700  0.17518500  0.66653700  1
  C  1334  1  0.22881500  0.16552400  0.66599400  1
  C  1339  1  0.28032700  0.13772100  0.62410400  1
  C  1340  1  0.25678500  0.18295900  0.67293500  1
  C  1351  1  0.32857500  0.16763600  0.33560800  1
  C  1352  1  0.31893000  0.15723100  0.35418100  1
  C  1353  1  0.28721700  0.14580300  0.35722000  1
  C  1354  1  0.26483000  0.14496100  0.34099500  1
  C  1355  1  0.27437800  0.15578100  0.32250700  1
  C  1356  1  0.30615000  0.16655700  0.31975900  1
  C  1359  1  0.23316200  0.13273100  0.34215900  1
  C  1360  1  0.20654900  0.14921000  0.34833200  1
  C  1361  1  0.17411700  0.13918300  0.34802900  1
  C  1362  1  0.16768900  0.11248100  0.34177900  1
  C  1363  1  0.19435300  0.09576900  0.33600100  1
  C  1364  1  0.22736400  0.10541000  0.33616400  1
  C  1369  1  0.27985200  0.13422700  0.37708500  1
  C  1370  1  0.25519000  0.08772800  0.32934000  1
  C  1381  1  0.67102700  0.16164400  0.34136600  1
  C  1382  1  0.68209100  0.15010700  0.35929800  1
  C  1383  1  0.71456500  0.13975700  0.36136700  1
  C  1384  1  0.73621000  0.14113000  0.34481000  1
  C  1385  1  0.72528500  0.15313500  0.32700200  1
  C  1386  1  0.69287500  0.16294400  0.32523400  1
  C  1389  1  0.76840300  0.12979300  0.34489200  1
  C  1390  1  0.79470400  0.14660800  0.35105900  1
  C  1391  1  0.82744400  0.13738700  0.34995800  1
  C  1392  1  0.83447700  0.11115300  0.34293500  1
  C  1393  1  0.80815200  0.09418400  0.33700300  1
  C  1394  1  0.77485200  0.10300500  0.33794800  1
  C  1399  1  0.72356400  0.12701900  0.38060500  1
  C  1400  1  0.74736100  0.08506500  0.33099100  1
  C  1411  1  0.67260900  0.10237200  0.66374300  1
  C  1412  1  0.68232800  0.11341800  0.64537700  1
  C  1413  1  0.71445900  0.12405900  0.64239600  1
  C  1414  1  0.73717000  0.12345000  0.65846300  1
  C  1415  1  0.72752000  0.11201900  0.67673500  1
  C  1416  1  0.69539400  0.10196400  0.67942500  1
  C  1419  1  0.76931100  0.13480400  0.65736200  1
  C  1420  1  0.79516800  0.11778100  0.65083300  1
  C  1421  1  0.82798500  0.12694000  0.65108300  1
  C  1422  1  0.83553900  0.15332400  0.65759700  1
  C  1423  1  0.80962300  0.17053900  0.66380800  1
  C  1424  1  0.77626000  0.16177200  0.66374000  1
  C  1429  1  0.72200200  0.13626500  0.62275700  1
  C  1430  1  0.74927200  0.17995500  0.67105100  1
  C  1441  1  0.33056200  0.60522500  0.16228400  1
  C  1442  1  0.31993400  0.61640400  0.14414200  1
  C  1443  1  0.28781000  0.62740200  0.14183900  1
  C  1444  1  0.26604400  0.62707500  0.15837400  1
  C  1445  1  0.27656400  0.61548200  0.17641400  1
  C  1446  1  0.30864700  0.60503300  0.17841300  1
  C  1449  1  0.23403200  0.63880200  0.15796700  1
  C  1450  1  0.20757300  0.62217300  0.15177400  1
  C  1451  1  0.17494500  0.63171700  0.15262100  1
  C  1452  1  0.16814900  0.65807300  0.15948900  1
  C  1453  1  0.19463000  0.67492400  0.16534900  1
  C  1454  1  0.22782900  0.66576000  0.16464800  1
  C  1459  1  0.27929300  0.63965900  0.12236100  1
  C  1460  1  0.25548000  0.68355000  0.17157100  1
  C  1471  1  0.32943700  0.66732600  0.83752500  1
  C  1472  1  0.31983200  0.65639000  0.85594400  1
  C  1473  1  0.28791700  0.64532300  0.85893700  1
  C  1474  1  0.26528700  0.64539200  0.84282300  1
  C  1475  1  0.27482100  0.65668500  0.82448400  1
  C  1476  1  0.30677100  0.66711800  0.82177700  1
  C  1479  1  0.23335000  0.63365000  0.84395400  1
  C  1480  1  0.20717700  0.65041200  0.85039600  1
  C  1481  1  0.17452700  0.64086000  0.85017100  1
  C  1482  1  0.16746200  0.61433500  0.84377100  1
  C  1483  1  0.19368100  0.59736700  0.83766600  1
  C  1484  1  0.22688900  0.60653300  0.83772100  1
  C  1489  1  0.28054900  0.63321300  0.87863200  1
  C  1490  1  0.25421900  0.58859800  0.83054000  1
  C  1501  1  0.67225800  0.66201000  0.83922200  1
  C  1502  1  0.68321800  0.65085100  0.85730200  1
  C  1503  1  0.71538600  0.63987700  0.85940700  1
  C  1504  1  0.73684300  0.64020600  0.84273000  1
  C  1505  1  0.72602900  0.65183600  0.82476600  1
  C  1506  1  0.69390400  0.66226200  0.82296600  1
  C  1509  1  0.76876200  0.62831800  0.84289800  1
  C  1510  1  0.79548300  0.64481100  0.84887500  1
  C  1511  1  0.82799900  0.63506600  0.84780000  1
  C  1512  1  0.83441800  0.60863100  0.84095800  1
  C  1513  1  0.80767800  0.59195400  0.83526400  1
  C  1514  1  0.77457900  0.60130700  0.83620700  1
  C  1519  1  0.72423400  0.62759100  0.87882400  1
  C  1520  1  0.74662900  0.58365800  0.82952600  1
  C  1531  1  0.67269300  0.59986100  0.16661900  1
  C  1532  1  0.68196200  0.61032200  0.14799500  1
  C  1533  1  0.71368500  0.62162700  0.14472000  1
  C  1534  1  0.73647000  0.62229100  0.16075200  1
  C  1535  1  0.72726000  0.61145000  0.17929700  1
  C  1536  1  0.69549300  0.60077400  0.18228100  1
  C  1539  1  0.76833100  0.63415400  0.15929600  1
  C  1540  1  0.79449000  0.61736300  0.15287500  1
  C  1541  1  0.82711800  0.62697900  0.15290100  1
  C  1542  1  0.83421600  0.65359500  0.15910100  1
  C  1543  1  0.80799200  0.67060700  0.16514000  1
  C  1544  1  0.77480200  0.66137500  0.16528100  1
  C  1549  1  0.72068600  0.63321800  0.12481300  1
  C  1550  1  0.74749400  0.67937600  0.17239700  1
  C  1561  1  0.00613300  0.43087000  0.78988000  1
  C  1562  1  0.00635800  0.43894200  0.76985100  1
  C  1563  1  0.00524300  0.41971100  0.75433400  1
  C  1564  1  0.00396500  0.39164300  0.75929500  1
  C  1565  1  0.00389100  0.38359500  0.77932000  1
  C  1566  1  0.00472700  0.40304400  0.79443300  1
  C  1569  1  0.00270900  0.37092700  0.74481200  1
  C  1570  1  0.03279300  0.36312400  0.73585200  1
  C  1571  1  0.03308900  0.34378100  0.72066200  1
  C  1572  1  0.00349500  0.33139300  0.71455600  1
  C  1573  1  0.97339500  0.33915400  0.72350800  1
  C  1574  1  0.97232300  0.35904000  0.73859200  1
  C  1579  1  0.00496100  0.43025500  0.73368400  1
  C  1580  1  0.94010500  0.36756700  0.74752500  1
  C  1591  1  0.00642000  0.83534000  0.21272000  1
  C  1592  1  0.00597500  0.82711600  0.23271200  1
  C  1593  1  0.00660300  0.84624800  0.24830700  1
  C  1594  1  0.00791600  0.87434800  0.24345100  1
  C  1595  1  0.00923100  0.88250700  0.22346600  1
  C  1596  1  0.00856100  0.86317000  0.20827700  1
  C  1599  1  0.00725600  0.89502200  0.25797500  1
  C  1600  1  0.03743800  0.90206370  0.26714700  1
  C  1601  1  0.03815300  0.92143070  0.28232400  1
  C  1602  1  0.00892000  0.93460170  0.28818800  1
  C  1603  1  0.97871800  0.92752670  0.27905600  1
  C  1604  1  0.97720100  0.90766870  0.26397500  1
  C  1609  1  0.00532500  0.83560600  0.26891400  1
  C  1610  1  0.94485900  0.90003170  0.25477000  1
  C  1621  1  0.49495400  0.42866700  0.21231200  1
  C  1622  1  0.49498100  0.43763600  0.23213600  1
  C  1623  1  0.49678300  0.41913300  0.24808400  1
  C  1624  1  0.49852400  0.39088700  0.24376300  1
  C  1625  1  0.49835600  0.38193600  0.22394200  1
  C  1626  1  0.49686200  0.40068300  0.20838800  1
  C  1629  1  0.50056800  0.37087400  0.25871100  1
  C  1630  1  0.47084100  0.36300000  0.26804700  1
  C  1631  1  0.47130100  0.34434100  0.28367500  1
  C  1632  1  0.50130800  0.33271800  0.28986200  1
  C  1633  1  0.53106000  0.34061100  0.28056300  1
  C  1634  1  0.53136400  0.35980600  0.26500300  1
  C  1639  1  0.49733000  0.43059700  0.26847100  1
  C  1640  1  0.56318800  0.36840600  0.25561800  1
  C  1651  1  0.49517400  0.83705600  0.79215200  1
  C  1652  1  0.49489700  0.82776900  0.77240700  1
  C  1653  1  0.49398900  0.84605500  0.75630300  1
  C  1654  1  0.49306700  0.87438500  0.76040900  1
  C  1655  1  0.49224200  0.88360900  0.78015900  1
  C  1656  1  0.49312900  0.86508200  0.79586900  1
  C  1659  1  0.49402900  0.89424900  0.74533100  1
  C  1660  1  0.46385400  0.90155070  0.73626500  1
  C  1661  1  0.46342600  0.92011370  0.72056500  1
  C  1662  1  0.49297100  0.93221770  0.71407300  1
  C  1663  1  0.52316300  0.92482770  0.72308100  1
  C  1664  1  0.52438000  0.90574470  0.73868500  1
  C  1669  1  0.49464500  0.83432400  0.73599900  1
  C  1670  1  0.55668300  0.89779600  0.74780400  1
  N  389  1  0.99663500  0.54239700  0.56606200  1
  N  390  1  0.00230100  0.45431400  0.43781600  1
  N  419  1  0.50398300  0.54286500  0.43705700  1
  N  420  1  0.50193300  0.44856300  0.56273300  1
  N  449  1  0.99249600  0.04195400  0.06596500  1
  N  450  1  0.99781900  0.95424100  0.93760000  1
  N  479  1  0.50883100  0.04228800  0.93737200  1
  N  480  1  0.50726600  0.94890500  0.06338300  1
  N  509  1  0.36110800  0.46181700  0.66841300  1
  N  510  1  0.13768000  0.53032200  0.66346100  1
  N  539  1  0.35976600  0.53864100  0.33161200  1
  N  540  1  0.13630500  0.47106400  0.33917000  1
  N  569  1  0.63960300  0.53257100  0.33797400  1
  N  570  1  0.86596000  0.47042900  0.33992800  1
  N  599  1  0.64143300  0.46161500  0.66777800  1
  N  600  1  0.86717800  0.52426000  0.66011400  1
  N  629  1  0.36181800  0.96412500  0.16584300  1
  N  630  1  0.13668800  0.02934500  0.16236000  1
  N  659  1  0.36061100  0.03836000  0.83348100  1
  N  660  1  0.13592900  0.97332200  0.84124000  1
  N  689  1  0.64091100  0.03331500  0.83588500  1
  N  690  1  0.86577900  0.96745600  0.83797200  1
  N  719  1  0.64162100  0.95889000  0.17078500  1
  N  720  1  0.86578400  0.02493000  0.16148800  1
  N  749  1  0.00599000  0.81301700  0.80502300  1
  N  750  1  0.00464300  0.68038000  0.69898300  1
  N  779  1  0.00478600  0.18368000  0.19750000  1
  N  780  1  0.01024000  0.31606700  0.30368600  1
  N  809  1  0.49479100  0.81019700  0.19682700  1
  N  810  1  0.50061500  0.68206400  0.30562900  1
  N  839  1  0.49711900  0.18605400  0.80772000  1
  N  840  1  0.49182400  0.31307100  0.69825500  1
  N  1229  1  0.99663500  0.17724800  0.56606200  1
  N  1230  1  0.00230100  0.08916500  0.43781600  1
  N  1259  1  0.50398300  0.17771600  0.43705700  1
  N  1260  1  0.50193300  0.08341400  0.56273300  1
  N  1289  1  0.99249600  0.67680500  0.06596500  1
  N  1290  1  0.99781900  0.58909200  0.93760000  1
  N  1319  1  0.50883100  0.67713900  0.93737200  1
  N  1320  1  0.50726600  0.58375600  0.06338300  1
  N  1349  1  0.36110800  0.09666800  0.66841300  1
  N  1350  1  0.13768000  0.16517300  0.66346100  1
  N  1379  1  0.35976600  0.17349200  0.33161200  1
  N  1380  1  0.13630500  0.10591500  0.33917000  1
  N  1409  1  0.63960300  0.16742200  0.33797400  1
  N  1410  1  0.86596000  0.10528000  0.33992800  1
  N  1439  1  0.64143300  0.09646600  0.66777800  1
  N  1440  1  0.86717800  0.15911100  0.66011400  1
  N  1469  1  0.36181800  0.59897600  0.16584300  1
  N  1470  1  0.13668800  0.66419600  0.16236000  1
  N  1499  1  0.36061100  0.67321100  0.83348100  1
  N  1500  1  0.13592900  0.60817300  0.84124000  1
  N  1529  1  0.64091100  0.66816600  0.83588500  1
  N  1530  1  0.86577900  0.60230700  0.83797200  1
  N  1559  1  0.64162100  0.59374100  0.17078500  1
  N  1560  1  0.86578400  0.65978100  0.16148800  1
  N  1589  1  0.00599000  0.44786800  0.80502300  1
  N  1590  1  0.00464300  0.31523100  0.69898300  1
  N  1619  1  0.00478600  0.81853100  0.19750000  1
  N  1620  1  0.01024000  0.95091770  0.30368600  1
  N  1649  1  0.49479100  0.44504800  0.19682700  1
  N  1650  1  0.50061500  0.31691500  0.30562900  1
  N  1679  1  0.49711900  0.82090500  0.80772000  1
  N  1680  1  0.49182400  0.94792170  0.69825500  1
  O  381  1  0.97157500  0.55134600  0.45829300  1
  O  385  1  0.08609400  0.49893000  0.51984400  1
  O  411  1  0.53218700  0.54632600  0.54409400  1
  O  415  1  0.41642000  0.49692700  0.48318000  1
  O  441  1  0.96759200  0.05132200  0.95826100  1
  O  445  1  0.08246500  0.99901900  0.01984100  1
  O  471  1  0.53629100  0.04676100  0.04422100  1
  O  475  1  0.42069400  0.99645000  0.98315700  1
  O  501  1  0.24889100  0.57560200  0.67800000  1
  O  505  1  0.28029500  0.48193600  0.60944800  1
  O  531  1  0.24718500  0.42523600  0.32480100  1
  O  535  1  0.28042300  0.52062600  0.39149200  1
  O  561  1  0.75614400  0.42312400  0.32533700  1
  O  565  1  0.72245900  0.51227400  0.39584900  1
  O  591  1  0.75845600  0.57234800  0.67605200  1
  O  595  1  0.72029600  0.48081800  0.60788700  1
  O  621  1  0.24702200  0.07599200  0.17687200  1
  O  625  1  0.27968100  0.98414500  0.10750500  1
  O  651  1  0.24553300  0.92634200  0.82568900  1
  O  655  1  0.28174600  0.01913200  0.89339200  1
  O  681  1  0.75473800  0.92145300  0.82419600  1
  O  685  1  0.72400900  0.01336400  0.89371000  1
  O  711  1  0.75613200  0.07204700  0.17691200  1
  O  715  1  0.71974200  0.97714500  0.11039400  1
  O  741  1  0.91073400  0.72093000  0.73933200  1
  O  745  1  0.03589300  0.80837100  0.72963600  1
  O  771  1  0.91579800  0.27781900  0.26268000  1
  O  775  1  0.03494100  0.18582800  0.27290200  1
  O  801  1  0.59299500  0.72259200  0.26385300  1
  O  805  1  0.46626900  0.80853900  0.27245800  1
  O  831  1  0.58596600  0.27447100  0.73930700  1
  O  835  1  0.46493200  0.18434200  0.73275100  1
  O  1221  1  0.97157500  0.18619700  0.45829300  1
  O  1225  1  0.08609400  0.13378100  0.51984400  1
  O  1251  1  0.53218700  0.18117700  0.54409400  1
  O  1255  1  0.41642000  0.13177800  0.48318000  1
  O  1281  1  0.96759200  0.68617300  0.95826100  1
  O  1285  1  0.08246500  0.63387000  0.01984100  1
  O  1311  1  0.53629100  0.68161200  0.04422100  1
  O  1315  1  0.42069400  0.63130100  0.98315700  1
  O  1341  1  0.24889100  0.21045300  0.67800000  1
  O  1345  1  0.28029500  0.11678700  0.60944800  1
  O  1371  1  0.24718500  0.06008700  0.32480100  1
  O  1375  1  0.28042300  0.15547700  0.39149200  1
  O  1401  1  0.75614400  0.05797500  0.32533700  1
  O  1405  1  0.72245900  0.14712500  0.39584900  1
  O  1431  1  0.75845600  0.20719900  0.67605200  1
  O  1435  1  0.72029600  0.11566900  0.60788700  1
  O  1461  1  0.24702200  0.71084300  0.17687200  1
  O  1465  1  0.27968100  0.61899600  0.10750500  1
  O  1491  1  0.24553300  0.56119300  0.82568900  1
  O  1495  1  0.28174600  0.65398300  0.89339200  1
  O  1521  1  0.75473800  0.55630400  0.82419600  1
  O  1525  1  0.72400900  0.64821500  0.89371000  1
  O  1551  1  0.75613200  0.70689800  0.17691200  1
  O  1555  1  0.71974200  0.61199600  0.11039400  1
  O  1581  1  0.91073400  0.35578100  0.73933200  1
  O  1585  1  0.03589300  0.44322200  0.72963600  1
  O  1611  1  0.91579800  0.91266970  0.26268000  1
  O  1615  1  0.03494100  0.82067900  0.27290200  1
  O  1641  1  0.59299500  0.35744300  0.26385300  1
  O  1645  1  0.46626900  0.44339000  0.27245800  1
  O  1671  1  0.58596600  0.90932170  0.73930700  1
  O  1675  1  0.46493200  0.81919300  0.73275100  1
