# generated using pymatgen
data_H5C7N2
_symmetry_space_group_name_H-M   'P 1'
_cell_length_a   9.88580000
_cell_length_b   63.60140000
_cell_length_c   80.86890000
_cell_angle_alpha   90.00000000
_cell_angle_beta   90.00000000
_cell_angle_gamma   90.00000000
_symmetry_Int_Tables_number   1
_chemical_formula_structural   H5C7N2
_chemical_formula_sum   'H360 C504 N144'
_cell_volume   50846.37911031
_cell_formula_units_Z   72
loop_
 _symmetry_equiv_pos_site_id
 _symmetry_equiv_pos_as_xyz
  1  'x, y, z'
loop_
 _atom_site_type_symbol
 _atom_site_label
 _atom_site_symmetry_multiplicity
 _atom_site_fract_x
 _atom_site_fract_y
 _atom_site_fract_z
 _atom_site_occupancy
  C  1  1  0.02661500  0.42814400  0.07041300  1
  C  3  1  0.99533100  0.46116400  0.05699800  1
  C  5  1  0.01824400  0.45961400  0.08637800  1
  C  7  1  0.02418800  0.58314600  0.94096700  1
  C  9  1  0.99241000  0.55002500  0.95441700  1
  C  11  1  0.02344500  0.55156300  0.92508700  1
  C  13  1  0.00819800  0.08340500  0.57041400  1
  C  15  1  0.03939700  0.05038500  0.55699900  1
  C  17  1  0.01651300  0.05193500  0.58637700  1
  C  19  1  0.01056600  0.92840800  0.44097500  1
  C  21  1  0.04230100  0.96153000  0.45442400  1
  C  23  1  0.01140100  0.95998600  0.42509200  1
  C  25  1  0.99245000  0.40530400  0.46541600  1
  C  27  1  0.99166500  0.39364800  0.49364400  1
  C  29  1  0.98689100  0.43058100  0.48746300  1
  C  31  1  0.00702100  0.60619200  0.54621600  1
  C  33  1  0.99419400  0.61809600  0.51807000  1
  C  35  1  0.99925600  0.58121200  0.52409000  1
  C  37  1  0.04208700  0.10625200  0.96541300  1
  C  39  1  0.04291700  0.11790600  0.99364100  1
  C  41  1  0.04771700  0.08097300  0.98746000  1
  C  43  1  0.02763800  0.90536300  0.04621200  1
  C  45  1  0.04046800  0.89345800  0.01806600  1
  C  47  1  0.03539100  0.93034400  0.02408500  1
  C  49  1  0.04617300  0.27221400  0.08420700  1
  C  51  1  0.04457500  0.23603900  0.07601200  1
  C  53  1  0.05225900  0.24486200  0.10475800  1
  C  55  1  0.04077800  0.73925700  0.92723700  1
  C  57  1  0.04427800  0.77539300  0.93555700  1
  C  59  1  0.05073700  0.76672000  0.90677700  1
  C  61  1  0.98844400  0.23933400  0.58420200  1
  C  63  1  0.99007100  0.27550900  0.57601200  1
  C  65  1  0.98236500  0.26668100  0.60475600  1
  C  67  1  0.99382500  0.77229900  0.42724300  1
  C  69  1  0.99040500  0.73616300  0.43556200  1
  C  71  1  0.98398300  0.74483700  0.40678300  1
  C  73  1  0.02518500  0.35295400  0.32130300  1
  C  75  1  0.02089500  0.37688900  0.34373800  1
  C  77  1  0.00460300  0.38963000  0.31596200  1
  C  79  1  0.02844200  0.65859700  0.69037300  1
  C  81  1  0.03080300  0.63469200  0.66788300  1
  C  83  1  0.01019600  0.62184100  0.69559000  1
  C  85  1  0.00975600  0.15859900  0.82129700  1
  C  87  1  0.01374100  0.13466300  0.84373400  1
  C  89  1  0.03026200  0.12192000  0.81596100  1
  C  91  1  0.00630100  0.85294400  0.19036200  1
  C  93  1  0.00386500  0.87685900  0.16787900  1
  C  95  1  0.02429500  0.88970000  0.19558900  1
  C  97  1  0.05351300  0.22523500  0.25252800  1
  C  99  1  0.02097700  0.18842500  0.24866400  1
  C  101  1  0.03776700  0.21092900  0.22528100  1
  C  103  1  0.05692500  0.78645200  0.75896800  1
  C  105  1  0.02458300  0.82326600  0.76283100  1
  C  107  1  0.04029700  0.80074300  0.78622000  1
  C  109  1  0.98114100  0.28631100  0.75253100  1
  C  111  1  0.01363900  0.32312000  0.74866200  1
  C  113  1  0.99685000  0.30061100  0.72528100  1
  C  115  1  0.97771100  0.72509800  0.25897300  1
  C  117  1  0.01006900  0.68828600  0.26283600  1
  C  119  1  0.99435100  0.71080900  0.28622600  1
  C  121  1  0.00414200  0.01287200  0.30864300  1
  C  123  1  0.98944600  0.03974200  0.28786200  1
  C  125  1  0.00285800  0.00366100  0.28001500  1
  C  127  1  0.01439800  0.99883000  0.70278400  1
  C  129  1  0.99763900  0.97194200  0.72352900  1
  C  131  1  0.01194100  0.00801000  0.73142900  1
  C  133  1  0.03060800  0.49867300  0.80863900  1
  C  135  1  0.04515300  0.47180100  0.78785900  1
  C  137  1  0.03181400  0.50788200  0.78001200  1
  C  139  1  0.02035000  0.51272300  0.20278500  1
  C  141  1  0.03705100  0.53961000  0.22353000  1
  C  143  1  0.02279700  0.50354000  0.23143000  1
  C  145  1  0.98074500  0.53795500  0.96935500  1
  C  146  1  0.97211800  0.51579600  0.96917200  1
  C  148  1  0.98008300  0.51302100  0.99900700  1
  C  149  1  0.98412500  0.53545800  0.00010600  1
  C  150  1  0.98474000  0.54736800  0.98522500  1
  C  152  1  0.98555100  0.49852200  0.01274600  1
  C  153  1  0.04993600  0.47837100  0.01257400  1
  C  154  1  0.04813600  0.46607700  0.02724300  1
  C  155  1  0.98762300  0.47316900  0.04208500  1
  C  156  1  0.92621200  0.49316300  0.04149200  1
  C  161  1  0.12536900  0.47008200  0.99801700  1
  C  165  1  0.99411900  0.54693900  0.01611000  1
  C  169  1  0.05384600  0.97360100  0.46936200  1
  C  170  1  0.06274200  0.99575700  0.46917900  1
  C  172  1  0.05449000  0.99853400  0.49901100  1
  C  173  1  0.05017000  0.97610000  0.50011300  1
  C  174  1  0.04959800  0.96419000  0.48523300  1
  C  176  1  0.04904800  0.01302900  0.51274900  1
  C  177  1  0.98446300  0.03316400  0.51258500  1
  C  178  1  0.98629800  0.04546000  0.52725300  1
  C  179  1  0.04702900  0.03838100  0.54208500  1
  C  180  1  0.10865700  0.01840200  0.54148400  1
  C  185  1  0.90877200  0.04142300  0.49803800  1
  C  189  1  0.03982700  0.96463100  0.51611800  1
  C  193  1  0.04742300  0.29451400  0.08135100  1
  C  194  1  0.02348500  0.30368000  0.06572300  1
  C  196  1  0.04443000  0.33912000  0.07629900  1
  C  197  1  0.07116000  0.33093300  0.09238800  1
  C  198  1  0.07194200  0.30883100  0.09447200  1
  C  200  1  0.03752100  0.36119600  0.07263100  1
  C  201  1  0.93292900  0.37122900  0.06336700  1
  C  202  1  0.93460800  0.39352700  0.06205700  1
  C  203  1  0.03441500  0.40586700  0.06996500  1
  C  204  1  0.13597100  0.39504800  0.07872200  1
  C  209  1  0.81785500  0.35930600  0.05612200  1
  C  213  1  0.09239100  0.34445800  0.10722700  1
  C  217  1  0.03915500  0.71692700  0.93002200  1
  C  218  1  0.02614600  0.70776400  0.94584700  1
  C  220  1  0.03595700  0.67229900  0.93507800  1
  C  221  1  0.04979500  0.68047200  0.91874100  1
  C  222  1  0.05104900  0.70257200  0.91666300  1
  C  224  1  0.03204300  0.65021600  0.93881000  1
  C  225  1  0.93647500  0.64012700  0.94939700  1
  C  226  1  0.93917600  0.61781100  0.95059200  1
  C  227  1  0.03121200  0.60548300  0.94135400  1
  C  228  1  0.12501300  0.61641200  0.93144200  1
  C  233  1  0.82909300  0.65203900  0.95823600  1
  C  237  1  0.05761400  0.66694700  0.90370400  1
  C  241  1  0.98720300  0.21703400  0.58134400  1
  C  242  1  0.01119800  0.20786900  0.56571700  1
  C  244  1  0.99021900  0.17242800  0.57628900  1
  C  245  1  0.96341700  0.18061400  0.59237700  1
  C  246  1  0.96262400  0.20271400  0.59446300  1
  C  248  1  0.99716800  0.15035200  0.57262200  1
  C  249  1  0.10181900  0.14032100  0.56336500  1
  C  250  1  0.10019600  0.11802300  0.56205900  1
  C  251  1  0.00042000  0.10568300  0.56997200  1
  C  252  1  0.89873800  0.11649800  0.57870900  1
  C  257  1  0.21688800  0.15224800  0.55612300  1
  C  261  1  0.94212500  0.16708700  0.60721300  1
  C  265  1  0.99543300  0.79462800  0.43002900  1
  C  266  1  0.00855800  0.80379000  0.44585200  1
  C  268  1  0.99865900  0.83925600  0.43508500  1
  C  269  1  0.98468000  0.83108300  0.41874900  1
  C  270  1  0.98341500  0.80898300  0.41667300  1
  C  272  1  0.00261500  0.86133900  0.43881900  1
  C  273  1  0.09826800  0.87142500  0.44939500  1
  C  274  1  0.09558300  0.89374100  0.45059300  1
  C  275  1  0.00346400  0.90607200  0.44137100  1
  C  276  1  0.90962400  0.89514500  0.43146100  1
  C  281  1  0.20571600  0.85951200  0.45821900  1
  C  285  1  0.97673500  0.84461000  0.40371500  1
  C  289  1  0.02128000  0.46938700  0.10223900  1
  C  290  1  0.10559700  0.46162300  0.11491600  1
  C  292  1  0.01536200  0.48573600  0.13510600  1
  C  293  1  0.92955100  0.49465700  0.12276600  1
  C  294  1  0.93541300  0.48636000  0.10644300  1
  C  296  1  0.01607400  0.49128300  0.15232400  1
  C  297  1  0.01645100  0.47633400  0.16547600  1
  C  298  1  0.01693300  0.48392100  0.18195200  1
  C  299  1  0.01765900  0.50564100  0.18591700  1
  C  300  1  0.01756800  0.51954600  0.17229400  1
  C  305  1  0.01152600  0.45317800  0.16269800  1
  C  309  1  0.82870800  0.51127500  0.12669600  1
  C  313  1  0.02912900  0.54173100  0.90926600  1
  C  314  1  0.11493400  0.54947700  0.89673700  1
  C  316  1  0.02600500  0.52547200  0.87636700  1
  C  317  1  0.93868500  0.51658400  0.88856500  1
  C  318  1  0.94318500  0.52483400  0.90490600  1
  C  320  1  0.02783100  0.51999100  0.85913200  1
  C  321  1  0.03063700  0.53497200  0.84600300  1
  C  322  1  0.03080700  0.52742700  0.82951500  1
  C  323  1  0.02893100  0.50571800  0.82551500  1
  C  324  1  0.02698500  0.49177800  0.83911200  1
  C  329  1  0.02837600  0.55813200  0.84880800  1
  C  333  1  0.83745500  0.50008100  0.88447300  1
  C  337  1  0.01343400  0.04215700  0.60223600  1
  C  338  1  0.92909600  0.04991900  0.61491200  1
  C  340  1  0.01938300  0.02581600  0.63510700  1
  C  341  1  0.10525800  0.01690200  0.62276900  1
  C  342  1  0.09939100  0.02519700  0.60644500  1
  C  344  1  0.01865500  0.02026900  0.65232500  1
  C  345  1  0.01820900  0.03521900  0.66547600  1
  C  346  1  0.01773000  0.02763100  0.68195200  1
  C  347  1  0.01705900  0.00591100  0.68591600  1
  C  348  1  0.01721700  0.99200600  0.67229300  1
  C  353  1  0.02307000  0.05837400  0.66269700  1
  C  357  1  0.20617700  0.00029600  0.62670400  1
  C  361  1  0.00572100  0.96981600  0.40927000  1
  C  362  1  0.91991200  0.96206900  0.39674200  1
  C  364  1  0.00877500  0.98608000  0.37637200  1
  C  365  1  0.09606300  0.99497600  0.38857100  1
  C  366  1  0.09158300  0.98672400  0.40491200  1
  C  368  1  0.00694500  0.99155900  0.35913700  1
  C  369  1  0.00418300  0.97657700  0.34600900  1
  C  370  1  0.00401000  0.98412100  0.32952000  1
  C  371  1  0.00585200  0.00582800  0.32551900  1
  C  372  1  0.00774200  0.01977000  0.33911400  1
  C  377  1  0.00648800  0.95341700  0.34881500  1
  C  381  1  0.19723000  0.01148700  0.38448000  1
  C  385  1  0.98584400  0.45227700  0.49231600  1
  C  386  1  0.98116400  0.45857300  0.50903600  1
  C  388  1  0.99229700  0.49559700  0.50221900  1
  C  389  1  0.99432500  0.49033600  0.48504900  1
  C  390  1  0.99126000  0.46877100  0.48054100  1
  C  392  1  0.99905500  0.51661400  0.50884200  1
  C  393  1  0.06920700  0.52258200  0.52356600  1
  C  394  1  0.06681100  0.54404100  0.52840800  1
  C  395  1  0.00021300  0.55972000  0.51902700  1
  C  396  1  0.93395600  0.55289600  0.50456300  1
  C  401  1  0.14977800  0.50751700  0.53365200  1
  C  405  1  0.00511900  0.50635000  0.47166900  1
  C  409  1  0.04880000  0.05927800  0.99231200  1
  C  410  1  0.05347600  0.05298200  0.00903100  1
  C  412  1  0.04235600  0.01595700  0.00221400  1
  C  413  1  0.04032700  0.02121900  0.98504500  1
  C  414  1  0.04338800  0.04278300  0.98053600  1
  C  416  1  0.03560200  0.99494100  0.00883800  1
  C  417  1  0.96546500  0.98897400  0.02356200  1
  C  418  1  0.96785900  0.96751400  0.02840400  1
  C  419  1  0.03444600  0.95183500  0.01902300  1
  C  420  1  0.10068200  0.95865900  0.00455900  1
  C  425  1  0.88490600  0.00404000  0.03365100  1
  C  429  1  0.02954400  0.00520500  0.97166400  1
  C  433  1  0.02237200  0.38062300  0.36110400  1
  C  434  1  0.94517400  0.39687100  0.36827500  1
  C  436  1  0.02005100  0.38830100  0.39588900  1
  C  437  1  0.10134400  0.37169000  0.38938200  1
  C  438  1  0.09932200  0.36805900  0.37205400  1
  C  440  1  0.01120200  0.39405900  0.41304200  1
  C  441  1  0.00768200  0.41514200  0.41906100  1
  C  442  1  0.00074300  0.41835700  0.43639300  1
  C  443  1  0.99676900  0.40157400  0.44793000  1
  C  444  1  0.99892400  0.38114400  0.44111600  1
  C  449  1  0.01657300  0.43386600  0.40804000  1
  C  453  1  0.19263700  0.35875000  0.39990000  1
  C  457  1  0.03445500  0.63094800  0.65051200  1
  C  458  1  0.96164300  0.61424400  0.64328900  1
  C  460  1  0.03541100  0.62323700  0.61572600  1
  C  461  1  0.11212700  0.64034200  0.62226700  1
  C  462  1  0.10861200  0.64396200  0.63959700  1
  C  464  1  0.02829500  0.61745900  0.59857200  1
  C  465  1  0.03136700  0.59639100  0.59252500  1
  C  466  1  0.02430400  0.59315500  0.57519400  1
  C  467  1  0.01380700  0.60991100  0.56369500  1
  C  468  1  0.01008600  0.63032100  0.57054200  1
  C  473  1  0.04681000  0.57775600  0.60352700  1
  C  477  1  0.20018200  0.65383400  0.61177000  1
  C  481  1  0.01220600  0.13093000  0.86110000  1
  C  482  1  0.08942300  0.11468600  0.86827300  1
  C  484  1  0.01448800  0.12325400  0.89588500  1
  C  485  1  0.93317200  0.13986200  0.88937600  1
  C  486  1  0.93521100  0.14349100  0.87204700  1
  C  488  1  0.02333400  0.11749700  0.91303800  1
  C  489  1  0.02690500  0.09641400  0.91905600  1
  C  490  1  0.03384300  0.09319900  0.93638900  1
  C  491  1  0.03775900  0.10998300  0.94792500  1
  C  492  1  0.03557300  0.13041200  0.94111300  1
  C  497  1  0.01806800  0.07769000  0.90803700  1
  C  501  1  0.84184000  0.15279700  0.89989200  1
  C  505  1  0.00022800  0.88060400  0.15050800  1
  C  506  1  0.07298000  0.89731600  0.14328700  1
  C  508  1  0.99926700  0.88831800  0.11572300  1
  C  509  1  0.92259200  0.87120800  0.12226200  1
  C  510  1  0.92610600  0.86758700  0.13959100  1
  C  512  1  0.00638300  0.89409800  0.09856800  1
  C  513  1  0.00327800  0.91516600  0.09252000  1
  C  514  1  0.01033900  0.91840200  0.07518900  1
  C  515  1  0.02085600  0.90164600  0.06369100  1
  C  516  1  0.02461800  0.88123600  0.07053800  1
  C  521  1  0.98780700  0.93380100  0.10352200  1
  C  525  1  0.83457700  0.85771200  0.11176300  1
  C  529  1  0.99441700  0.37696000  0.50564000  1
  C  530  1  0.99211500  0.35551700  0.50106000  1
  C  532  1  0.00189600  0.34330200  0.52935800  1
  C  533  1  0.00398900  0.36465200  0.53487400  1
  C  534  1  0.00037000  0.38095500  0.52286200  1
  C  536  1  0.00388500  0.32505700  0.53996400  1
  C  537  1  0.07522600  0.30589700  0.53686700  1
  C  538  1  0.06678000  0.28940200  0.54872600  1
  C  539  1  0.99273200  0.29151100  0.56360000  1
  C  540  1  0.92425000  0.31076300  0.56587900  1
  C  545  1  0.16393800  0.30301800  0.52217600  1
  C  549  1  0.01496200  0.37057200  0.55264400  1
  C  553  1  0.99262700  0.63483200  0.50610700  1
  C  554  1  0.99279800  0.65626700  0.51071300  1
  C  556  1  0.99756700  0.66852700  0.48239300  1
  C  557  1  0.99626200  0.64718300  0.47685700  1
  C  558  1  0.99400200  0.63087200  0.48886300  1
  C  560  1  0.00023800  0.68677800  0.47178200  1
  C  561  1  0.07432100  0.70572900  0.47472400  1
  C  562  1  0.06700700  0.72219100  0.46282400  1
  C  563  1  0.99150900  0.72024600  0.44804600  1
  C  564  1  0.92023600  0.70121500  0.44592000  1
  C  569  1  0.16476800  0.70840800  0.48928200  1
  C  573  1  0.00286700  0.64124200  0.45905600  1
  C  577  1  0.04018500  0.13459400  0.00563700  1
  C  578  1  0.04248200  0.15603800  0.00105800  1
  C  580  1  0.03273000  0.16824900  0.02935600  1
  C  581  1  0.03064200  0.14690000  0.03487100  1
  C  582  1  0.03424900  0.13059800  0.02285800  1
  C  584  1  0.03074300  0.18649400  0.03996200  1
  C  585  1  0.95938700  0.20565300  0.03686800  1
  C  586  1  0.96784700  0.22214700  0.04872700  1
  C  587  1  0.04193100  0.22004100  0.06359800  1
  C  588  1  0.11040200  0.20078600  0.06587600  1
  C  593  1  0.87064900  0.20853300  0.02217800  1
  C  597  1  0.01968700  0.14097900  0.05264000  1
  C  601  1  0.04201100  0.87672400  0.00610100  1
  C  602  1  0.04184900  0.85528900  0.01070700  1
  C  604  1  0.03709000  0.84302800  0.98238800  1
  C  605  1  0.03840000  0.86437300  0.97685100  1
  C  606  1  0.04065600  0.88068400  0.98885900  1
  C  608  1  0.03442500  0.82477700  0.97177700  1
  C  609  1  0.96031700  0.80582900  0.97471700  1
  C  610  1  0.96764500  0.78936600  0.96281700  1
  C  611  1  0.04321500  0.79130600  0.94804400  1
  C  612  1  0.11446400  0.81034000  0.94591700  1
  C  617  1  0.86982400  0.80315500  0.98927000  1
  C  621  1  0.03181000  0.87031500  0.95905200  1
  C  625  1  0.04008900  0.21415400  0.20788500  1
  C  626  1  0.12599600  0.22935200  0.20076200  1
  C  628  1  0.04071000  0.22282200  0.17333200  1
  C  629  1  0.95238000  0.20703600  0.17971500  1
  C  630  1  0.95520300  0.20284900  0.19697600  1
  C  632  1  0.04640200  0.22963200  0.15644800  1
  C  633  1  0.05176300  0.25112200  0.15145000  1
  C  634  1  0.05508100  0.25561100  0.13430100  1
  C  635  1  0.05340600  0.23971600  0.12200800  1
  C  636  1  0.04951700  0.21880500  0.12783800  1
  C  641  1  0.04792400  0.26901700  0.16334300  1
  C  645  1  0.85263800  0.19580500  0.16914700  1
  C  649  1  0.04204600  0.79752100  0.80362400  1
  C  650  1  0.12727000  0.78225900  0.81078700  1
  C  652  1  0.04171700  0.78888900  0.83819600  1
  C  653  1  0.95409500  0.80474400  0.83177300  1
  C  654  1  0.95738300  0.80890900  0.81450900  1
  C  656  1  0.04673000  0.78206700  0.85508600  1
  C  657  1  0.05097900  0.76056600  0.86006900  1
  C  658  1  0.05375600  0.75604700  0.87721400  1
  C  659  1  0.05259600  0.77191500  0.88953100  1
  C  660  1  0.04979600  0.79284100  0.88371600  1
  C  665  1  0.04648700  0.74269100  0.84816000  1
  C  669  1  0.85460400  0.81607400  0.84231100  1
  C  673  1  0.99452200  0.29738500  0.70788600  1
  C  674  1  0.90864700  0.28218100  0.70076500  1
  C  676  1  0.99391100  0.28871200  0.67333400  1
  C  677  1  0.08222600  0.30450100  0.67971700  1
  C  678  1  0.07940500  0.30868800  0.69697600  1
  C  680  1  0.98820500  0.28190400  0.65644900  1
  C  681  1  0.98282300  0.26041500  0.65144800  1
  C  682  1  0.97950000  0.25592800  0.63429900  1
  C  683  1  0.98115900  0.27182400  0.62200800  1
  C  684  1  0.98509500  0.29273500  0.62783900  1
  C  689  1  0.98666300  0.24251800  0.66334000  1
  C  693  1  0.18196000  0.31573500  0.66914700  1
  C  697  1  0.99261500  0.71403400  0.30363000  1
  C  698  1  0.90740300  0.72929800  0.31079200  1
  C  700  1  0.99294400  0.72266400  0.33820200  1
  C  701  1  0.08053600  0.70680500  0.33177900  1
  C  702  1  0.07724900  0.70264100  0.31451500  1
  C  704  1  0.98794300  0.72948800  0.35509100  1
  C  705  1  0.98373900  0.75098900  0.36007400  1
  C  706  1  0.98097700  0.75551000  0.37721900  1
  C  707  1  0.98212100  0.73964000  0.38953500  1
  C  708  1  0.98486300  0.71871600  0.38372200  1
  C  713  1  0.98825600  0.76886500  0.34816500  1
  C  717  1  0.18000300  0.69547000  0.34231800  1
  C  721  1  0.02732800  0.33259300  0.31451500  1
  C  722  1  0.15071700  0.32227400  0.31132400  1
  C  724  1  0.03979700  0.29595900  0.29502800  1
  C  725  1  0.91175300  0.30544600  0.29794000  1
  C  726  1  0.90840000  0.32399900  0.30760000  1
  C  728  1  0.05770500  0.27881600  0.28409400  1
  C  729  1  0.10299800  0.28115600  0.26752400  1
  C  730  1  0.10352900  0.26306600  0.25730200  1
  C  731  1  0.06173600  0.24310300  0.26316900  1
  C  732  1  0.02074200  0.24203500  0.27990700  1
  C  737  1  0.14398500  0.30192700  0.26072100  1
  C  741  1  0.78521200  0.29714300  0.29043800  1
  C  745  1  0.02817400  0.67893100  0.69727800  1
  C  746  1  0.14827500  0.69074800  0.69860100  1
  C  748  1  0.04165200  0.71572600  0.71654700  1
  C  749  1  0.91638900  0.70485500  0.71538600  1
  C  750  1  0.91276000  0.68623800  0.70581900  1
  C  752  1  0.06142900  0.73292400  0.72736300  1
  C  753  1  0.10705400  0.73057800  0.74391600  1
  C  754  1  0.10763000  0.74865600  0.75415000  1
  C  755  1  0.06531400  0.76860200  0.74830600  1
  C  756  1  0.02422300  0.76967900  0.73156800  1
  C  761  1  0.14955400  0.70983300  0.75062900  1
  C  765  1  0.79351800  0.71199200  0.72439400  1
  C  769  1  0.00762200  0.17895800  0.81450300  1
  C  770  1  0.88432400  0.18936000  0.81143500  1
  C  772  1  0.99498900  0.21560500  0.79504300  1
  C  773  1  0.12296100  0.20604200  0.79784400  1
  C  774  1  0.12639900  0.18748200  0.80749500  1
  C  776  1  0.97693100  0.23274900  0.78411400  1
  C  777  1  0.93159500  0.23040200  0.76754700  1
  C  778  1  0.93106900  0.24848500  0.75731900  1
  C  779  1  0.97297600  0.26844700  0.76317800  1
  C  780  1  0.01394200  0.26952400  0.77991600  1
  C  785  1  0.89050600  0.20962900  0.76075600  1
  C  789  1  0.24929400  0.21428400  0.79025000  1
  C  793  1  0.00647900  0.83260700  0.19725600  1
  C  794  1  0.88627700  0.82082100  0.19862800  1
  C  796  1  0.99297000  0.79582200  0.21654800  1
  C  797  1  0.11829800  0.80666700  0.21535700  1
  C  798  1  0.12193400  0.82528000  0.20578200  1
  C  800  1  0.97321800  0.77862700  0.22736700  1
  C  801  1  0.92757900  0.78097300  0.24392100  1
  C  802  1  0.92699700  0.76289500  0.25415300  1
  C  803  1  0.96928400  0.74294700  0.24831000  1
  C  804  1  0.01042400  0.74187200  0.23157500  1
  C  809  1  0.88511300  0.80171900  0.25063400  1
  C  813  1  0.24123600  0.79951500  0.22434300  1
  C  817  1  0.99823500  0.40610900  0.30392900  1
  C  818  1  0.00708700  0.42756700  0.30824300  1
  C  820  1  0.00400200  0.43881400  0.27975300  1
  C  821  1  0.99143300  0.41750000  0.27450800  1
  C  822  1  0.98895900  0.40163700  0.28679000  1
  C  824  1  0.01302600  0.45637800  0.26873600  1
  C  825  1  0.10731200  0.47326800  0.27021900  1
  C  826  1  0.10685700  0.48910100  0.25785400  1
  C  827  1  0.01920100  0.48815200  0.24407000  1
  C  828  1  0.92840300  0.47112900  0.24331300  1
  C  833  1  0.21049000  0.47424200  0.28359700  1
  C  837  1  0.98777600  0.41109100  0.25678600  1
  C  841  1  0.00366700  0.60532300  0.70758300  1
  C  842  1  0.01649800  0.58391100  0.70327600  1
  C  844  1  0.01046500  0.57261300  0.73174600  1
  C  845  1  0.99363800  0.59386400  0.73697300  1
  C  846  1  0.99075000  0.60973100  0.72469700  1
  C  848  1  0.02057200  0.55507100  0.74276900  1
  C  849  1  0.11771200  0.53854800  0.74148600  1
  C  850  1  0.11776200  0.52268000  0.75382500  1
  C  851  1  0.02786600  0.52328100  0.76739900  1
  C  852  1  0.93439600  0.53995600  0.76797800  1
  C  857  1  0.22316900  0.53800200  0.72836100  1
  C  861  1  0.98607100  0.60023000  0.75468700  1
  C  865  1  0.03666600  0.10544000  0.80392900  1
  C  866  1  0.02772800  0.08398200  0.80824400  1
  C  868  1  0.03080400  0.07273500  0.77975300  1
  C  869  1  0.04341400  0.09404900  0.77450800  1
  C  870  1  0.04593000  0.10991100  0.78679000  1
  C  872  1  0.02175600  0.05517100  0.76873600  1
  C  873  1  0.92746200  0.03828400  0.77021900  1
  C  874  1  0.92790200  0.02245000  0.75785500  1
  C  875  1  0.01555000  0.02339700  0.74406900  1
  C  876  1  0.10635200  0.04041900  0.74331300  1
  C  881  1  0.82429400  0.03730800  0.78359900  1
  C  885  1  0.04706400  0.10045800  0.75678500  1
  C  889  1  0.03079300  0.90621500  0.20758700  1
  C  890  1  0.01814400  0.92763000  0.20327800  1
  C  892  1  0.02408700  0.93892500  0.23174900  1
  C  893  1  0.04076100  0.91767100  0.23697600  1
  C  894  1  0.04361500  0.90180300  0.22469900  1
  C  896  1  0.01403100  0.95646900  0.24277100  1
  C  897  1  0.91701600  0.97300900  0.24148000  1
  C  898  1  0.91698800  0.98887700  0.25381800  1
  C  899  1  0.00678200  0.98826100  0.26740200  1
  C  900  1  0.10014000  0.97156900  0.26799000  1
  C  905  1  0.81165400  0.97357400  0.22834400  1
  C  909  1  0.04820700  0.91130300  0.25469000  1
  C  913  1  0.98518600  0.06123000  0.28251900  1
  C  914  1  0.99291400  0.07831600  0.29361300  1
  C  916  1  0.99194200  0.10400500  0.27160400  1
  C  917  1  0.98143200  0.08753300  0.25970400  1
  C  918  1  0.97819600  0.06652800  0.26550100  1
  C  920  1  0.00112300  0.12590400  0.26750900  1
  C  921  1  0.09272500  0.14052800  0.27485100  1
  C  922  1  0.09438500  0.16146000  0.26875600  1
  C  923  1  0.01113700  0.16793000  0.25548100  1
  C  924  1  0.92230800  0.15283300  0.24883400  1
  C  929  1  0.19182200  0.13438400  0.28783600  1
  C  933  1  0.98054400  0.09127400  0.24150600  1
  C  937  1  0.99227300  0.95045600  0.72886600  1
  C  938  1  0.00088400  0.93336100  0.71779000  1
  C  940  1  0.99741600  0.90767900  0.73980800  1
  C  941  1  0.98578700  0.92416500  0.75168200  1
  C  942  1  0.98339500  0.94516700  0.74587200  1
  C  944  1  0.00619100  0.88577700  0.74392600  1
  C  945  1  0.09814800  0.87112800  0.73667800  1
  C  946  1  0.09932600  0.85020400  0.74279300  1
  C  947  1  0.01526200  0.84375900  0.75600000  1
  C  948  1  0.92615200  0.85887800  0.76255900  1
  C  953  1  0.19806300  0.87723000  0.72377600  1
  C  957  1  0.98294200  0.92044600  0.76988200  1
  C  961  1  0.04942600  0.45031200  0.78251700  1
  C  962  1  0.04170200  0.43322600  0.79361300  1
  C  964  1  0.04272400  0.40753800  0.77160300  1
  C  965  1  0.05327500  0.42400800  0.75970300  1
  C  966  1  0.05649200  0.44501300  0.76549900  1
  C  968  1  0.03352800  0.38563900  0.76750900  1
  C  969  1  0.94185600  0.37102000  0.77484400  1
  C  970  1  0.94017800  0.35008800  0.76874800  1
  C  971  1  0.02346300  0.34361600  0.75547700  1
  C  972  1  0.11237600  0.35870700  0.74883800  1
  C  977  1  0.84271400  0.37716900  0.78782000  1
  C  981  1  0.05422600  0.42026600  0.74150500  1
  C  985  1  0.04237100  0.56109600  0.22886800  1
  C  986  1  0.03379300  0.57819100  0.21779100  1
  C  988  1  0.03724300  0.60387300  0.23981000  1
  C  989  1  0.04886000  0.58738800  0.25168400  1
  C  990  1  0.05125300  0.56638500  0.24587300  1
  C  992  1  0.02846200  0.62577500  0.24392800  1
  C  993  1  0.93650600  0.64042400  0.23668200  1
  C  994  1  0.93531600  0.66134800  0.24279800  1
  C  995  1  0.01933800  0.66778800  0.25600800  1
  C  996  1  0.10849100  0.65267200  0.26256300  1
  C  1001  1  0.83661000  0.63432200  0.22377700  1
  C  1005  1  0.05169700  0.59110600  0.26988400  1
  H  151  1  0.99094300  0.56339600  0.98599700  1
  H  158  1  0.09652400  0.45184500  0.02728600  1
  H  159  1  0.87995900  0.49943800  0.05165900  1
  H  160  1  0.96909800  0.50757800  0.95832400  1
  H  162  1  0.19851900  0.48174200  0.99374900  1
  H  163  1  0.05493300  0.46645200  0.98803800  1
  H  164  1  0.18134300  0.45570300  0.00076500  1
  H  166  1  0.90095000  0.54486300  0.02315200  1
  H  167  1  0.00931200  0.56382100  0.01452600  1
  H  168  1  0.07939300  0.54095200  0.02327500  1
  H  175  1  0.04320100  0.94816400  0.48600500  1
  H  182  1  0.93776400  0.05967900  0.52730400  1
  H  183  1  0.15508800  0.01214100  0.55164400  1
  H  184  1  0.06599000  0.00397300  0.45833100  1
  H  186  1  0.83572400  0.02974000  0.49378400  1
  H  187  1  0.97905700  0.04507000  0.48804600  1
  H  188  1  0.85265300  0.05578600  0.50079200  1
  H  190  1  0.13295000  0.96667500  0.52317500  1
  H  191  1  0.02439600  0.94775400  0.51453500  1
  H  192  1  0.95456800  0.97065300  0.52326800  1
  H  199  1  0.09134000  0.30306400  0.10603700  1
  H  206  1  0.85758900  0.40103300  0.05598500  1
  H  207  1  0.21115300  0.40296600  0.08477100  1
  H  208  1  0.00430600  0.29453700  0.05560400  1
  H  210  1  0.76887600  0.34987600  0.06568600  1
  H  211  1  0.85448900  0.34895400  0.04634900  1
  H  212  1  0.74107400  0.36955800  0.05072500  1
  H  214  1  0.01066800  0.35592400  0.10824800  1
  H  215  1  0.18881200  0.35269300  0.10621900  1
  H  216  1  0.09455700  0.33551800  0.11875000  1
  H  223  1  0.06133600  0.70830200  0.90491600  1
  H  230  1  0.86799300  0.61029300  0.95763700  1
  H  231  1  0.19502400  0.60858400  0.92446500  1
  H  232  1  0.01677400  0.71692200  0.95616100  1
  H  234  1  0.77156600  0.66152000  0.94944600  1
  H  235  1  0.87479500  0.66234300  0.96745400  1
  H  236  1  0.75781500  0.64177600  0.96465000  1
  H  238  1  0.97504900  0.65555300  0.90373500  1
  H  239  1  0.15406700  0.65862800  0.90345600  1
  H  240  1  0.05012800  0.67590000  0.89222100  1
  H  247  1  0.94316700  0.20848100  0.60602800  1
  H  254  1  0.17724600  0.11051800  0.55599100  1
  H  255  1  0.82353200  0.10857800  0.58475200  1
  H  256  1  0.03042400  0.21701400  0.55560000  1
  H  258  1  0.26582200  0.16168300  0.56568800  1
  H  259  1  0.18026500  0.16259700  0.54634700  1
  H  260  1  0.29370600  0.14200000  0.55073100  1
  H  262  1  0.02385000  0.15562100  0.60823900  1
  H  263  1  0.84571300  0.15885000  0.60619800  1
  H  264  1  0.93990800  0.17602600  0.61873700  1
  H  271  1  0.97302600  0.80325500  0.40492600  1
  H  278  1  0.16683100  0.90125800  0.45762900  1
  H  279  1  0.83958500  0.90297600  0.42449100  1
  H  280  1  0.01802300  0.79463100  0.45616500  1
  H  282  1  0.26317200  0.85003100  0.44942200  1
  H  283  1  0.16008500  0.84920600  0.46744300  1
  H  284  1  0.27705100  0.86977100  0.46462600  1
  H  286  1  0.05930400  0.85600300  0.40373600  1
  H  287  1  0.88027800  0.85292900  0.40347900  1
  H  288  1  0.98411900  0.83565600  0.39223000  1
  H  295  1  0.87115400  0.49211600  0.09760700  1
  H  302  1  0.01753200  0.47314800  0.19134400  1
  H  303  1  0.01812900  0.53546300  0.17399900  1
  H  304  1  0.17119300  0.44948400  0.11283100  1
  H  306  1  0.92878200  0.44929300  0.15429900  1
  H  307  1  0.99543400  0.44431200  0.17409000  1
  H  308  1  0.10684600  0.44781800  0.15737300  1
  H  310  1  0.76410000  0.50613200  0.13687300  1
  H  311  1  0.76329800  0.51497600  0.11621800  1
  H  312  1  0.88060700  0.52571400  0.13025300  1
  H  319  1  0.87766400  0.51913100  0.91362500  1
  H  326  1  0.03301900  0.53821600  0.82013800  1
  H  327  1  0.02557900  0.47586800  0.83738100  1
  H  328  1  0.18037500  0.56160200  0.89894000  1
  H  330  1  0.94554800  0.56224800  0.85712500  1
  H  331  1  0.01419100  0.56706900  0.83741300  1
  H  332  1  0.12398300  0.56319300  0.85423700  1
  H  334  1  0.77412200  0.50530300  0.87420100  1
  H  335  1  0.77078700  0.49644300  0.89484500  1
  H  336  1  0.88903800  0.48558300  0.88099200  1
  H  343  1  0.16369700  0.01944700  0.59761300  1
  H  350  1  0.01708600  0.03840300  0.69134500  1
  H  351  1  0.01671100  0.97608900  0.67399900  1
  H  352  1  0.86346600  0.06205200  0.61282500  1
  H  354  1  0.10581500  0.06226600  0.65430100  1
  H  355  1  0.03910400  0.06724000  0.67409000  1
  H  356  1  0.92774000  0.06372700  0.65737000  1
  H  358  1  0.27073800  0.00545000  0.63688400  1
  H  359  1  0.27162800  0.99660300  0.61622800  1
  H  360  1  0.15433800  0.98585200  0.63026100  1
  H  367  1  0.15708100  0.99243200  0.41363200  1
  H  374  1  0.00182600  0.97333000  0.32014400  1
  H  375  1  0.00910800  0.03568000  0.33738300  1
  H  376  1  0.85450400  0.94993900  0.39894400  1
  H  378  1  0.08931700  0.94930700  0.35713300  1
  H  379  1  0.02069900  0.94448000  0.33742000  1
  H  380  1  0.91088700  0.94835300  0.35424200  1
  H  382  1  0.26059200  0.00627100  0.37420900  1
  H  383  1  0.26388000  0.01513000  0.39485400  1
  H  384  1  0.14559500  0.02597900  0.38100000  1
  H  391  1  0.99436000  0.46501800  0.46824500  1
  H  398  1  0.11774000  0.54846600  0.53886800  1
  H  399  1  0.88200300  0.56319300  0.49722800  1
  H  400  1  0.97681100  0.44777600  0.51837500  1
  H  402  1  0.22022700  0.49895100  0.52573300  1
  H  403  1  0.08247300  0.49638700  0.53978200  1
  H  404  1  0.20927600  0.51526200  0.54325700  1
  H  406  1  0.91241500  0.51562700  0.47112500  1
  H  407  1  0.02007200  0.49939000  0.45946600  1
  H  408  1  0.09087400  0.51673000  0.47403900  1
  H  415  1  0.04028200  0.04653700  0.96824100  1
  H  422  1  0.91694200  0.96309000  0.03886600  1
  H  423  1  0.15262000  0.94836200  0.99722200  1
  H  424  1  0.05781700  0.06378000  0.01836900  1
  H  426  1  0.81445100  0.01260600  0.02573300  1
  H  427  1  0.95222000  0.01516800  0.03977900  1
  H  428  1  0.82542100  0.99629500  0.04325600  1
  H  430  1  0.12224800  0.99592900  0.97112100  1
  H  431  1  0.01459300  0.01216600  0.95946000  1
  H  432  1  0.94378800  0.99482300  0.97403300  1
  H  439  1  0.15799000  0.35630000  0.36722100  1
  H  446  1  0.99935800  0.43347900  0.44069700  1
  H  447  1  0.99624300  0.36811900  0.44850200  1
  H  448  1  0.88507400  0.40638500  0.36121800  1
  H  450  1  0.10339900  0.43235500  0.39978600  1
  H  451  1  0.02855200  0.44855600  0.41486900  1
  H  452  1  0.92439800  0.43523200  0.40070600  1
  H  454  1  0.25749600  0.36896800  0.40730700  1
  H  455  1  0.25838300  0.34847800  0.39266400  1
  H  456  1  0.13294400  0.34878500  0.40809500  1
  H  463  1  0.16399400  0.65608400  0.64445000  1
  H  470  1  0.02726700  0.57804800  0.57086400  1
  H  471  1  0.00219000  0.64332200  0.56318700  1
  H  472  1  0.90356400  0.60438300  0.65030200  1
  H  474  1  0.13334000  0.57994800  0.61173300  1
  H  475  1  0.06331900  0.56318800  0.59667800  1
  H  476  1  0.95550200  0.57565700  0.61091700  1
  H  478  1  0.26785600  0.64402600  0.60439800  1
  H  479  1  0.26296000  0.66452700  0.61902400  1
  H  480  1  0.13811900  0.66339500  0.60354100  1
  H  487  1  0.87653500  0.15524700  0.86721300  1
  H  494  1  0.03526000  0.07807700  0.94069300  1
  H  495  1  0.03822300  0.14343700  0.94849900  1
  H  496  1  0.14956000  0.10517500  0.86121800  1
  H  498  1  0.93125000  0.07919600  0.89978200  1
  H  499  1  0.00611500  0.06299900  0.91486600  1
  H  500  1  0.11025600  0.07632900  0.90070300  1
  H  502  1  0.77699000  0.14257700  0.90729800  1
  H  503  1  0.77608800  0.16306500  0.89265300  1
  H  504  1  0.90150500  0.16276500  0.90808800  1
  H  511  1  0.87075500  0.85546000  0.14444200  1
  H  518  1  0.00735000  0.93350900  0.07085900  1
  H  519  1  0.03253400  0.86823300  0.06318400  1
  H  520  1  0.13101900  0.90718200  0.15030100  1
  H  522  1  0.90127400  0.93160600  0.11172700  1
  H  523  1  0.97127800  0.94836700  0.09667200  1
  H  524  1  0.07911000  0.93590200  0.11091300  1
  H  526  1  0.76688400  0.86751600  0.10439000  1
  H  527  1  0.77181900  0.84701500  0.11901600  1
  H  528  1  0.89667000  0.84815400  0.10353400  1
  H  535  1  0.00258000  0.39623000  0.52682400  1
  H  542  1  0.11966900  0.27578500  0.54678400  1
  H  543  1  0.86718800  0.31348800  0.57619800  1
  H  544  1  0.98759900  0.35109400  0.48892900  1
  H  546  1  0.23556200  0.31604000  0.52130200  1
  H  547  1  0.10270500  0.30247300  0.51096800  1
  H  548  1  0.22250900  0.28848200  0.52270600  1
  H  550  1  0.09959000  0.36227300  0.55835300  1
  H  551  1  0.92164600  0.36651100  0.55909200  1
  H  552  1  0.03190600  0.38737800  0.55444500  1
  H  559  1  0.99434200  0.61560600  0.48487500  1
  H  566  1  0.12193800  0.73563900  0.46464800  1
  H  567  1  0.86206900  0.69861800  0.43567300  1
  H  568  1  0.99202500  0.66066300  0.52286200  1
  H  570  1  0.23494800  0.69519000  0.49008200  1
  H  571  1  0.10467800  0.70916500  0.50057400  1
  H  572  1  0.22497700  0.72277300  0.48863900  1
  H  574  1  0.08726300  0.64929800  0.45308700  1
  H  575  1  0.90873300  0.64557000  0.45290000  1
  H  576  1  0.01743100  0.62439100  0.45719500  1
  H  583  1  0.03204800  0.11532300  0.02682000  1
  H  590  1  0.91494300  0.23576400  0.04678600  1
  H  591  1  0.16747800  0.19806300  0.07619400  1
  H  592  1  0.04698500  0.16046000  0.98892700  1
  H  594  1  0.79903100  0.19551000  0.02130600  1
  H  595  1  0.93186600  0.20907900  0.01096900  1
  H  596  1  0.81207000  0.22306700  0.02271000  1
  H  598  1  0.93506400  0.14927600  0.05835100  1
  H  599  1  0.11300700  0.14504000  0.05908800  1
  H  600  1  0.00274700  0.12417300  0.05444200  1
  H  607  1  0.04032200  0.89595000  0.98487000  1
  H  614  1  0.91269300  0.77592000  0.96464000  1
  H  615  1  0.17264800  0.81293600  0.93567100  1
  H  616  1  0.04262300  0.85089300  0.02285700  1
  H  618  1  0.79965800  0.81637500  0.99006600  1
  H  619  1  0.92988300  0.80239700  0.00056600  1
  H  620  1  0.80960100  0.78879000  0.98862600  1
  H  622  1  0.94741600  0.86225900  0.95308300  1
  H  623  1  0.12594600  0.86598500  0.95289600  1
  H  624  1  0.01725100  0.88716500  0.95719100  1
  H  631  1  0.89024100  0.19192500  0.20181500  1
  H  638  1  0.05785900  0.27103200  0.13072600  1
  H  639  1  0.04766600  0.20638800  0.11982500  1
  H  640  1  0.19148400  0.23796600  0.20781900  1
  H  642  1  0.96310300  0.26711700  0.17185500  1
  H  643  1  0.03590800  0.28422300  0.15725300  1
  H  644  1  0.14206000  0.26960100  0.17036200  1
  H  646  1  0.79069500  0.20715900  0.16242200  1
  H  647  1  0.78447400  0.18581200  0.17628900  1
  H  648  1  0.90543700  0.18577300  0.16031700  1
  H  655  1  0.89291300  0.81988700  0.80964600  1
  H  662  1  0.05582500  0.74061700  0.88077000  1
  H  663  1  0.04830200  0.80524100  0.89174400  1
  H  664  1  0.19260200  0.77358200  0.80375600  1
  H  666  1  0.96194200  0.74470500  0.83962300  1
  H  667  1  0.03356900  0.72749100  0.85423300  1
  H  668  1  0.14074300  0.74199900  0.84117100  1
  H  670  1  0.79203900  0.80478000  0.84901300  1
  H  671  1  0.78702400  0.82613800  0.83514800  1
  H  672  1  0.90763100  0.82604900  0.85116000  1
  H  679  1  0.14435500  0.31961500  0.70181500  1
  H  686  1  0.97671900  0.24050700  0.63072300  1
  H  687  1  0.98696700  0.30515200  0.61982800  1
  H  688  1  0.84317400  0.27356500  0.70782300  1
  H  690  1  0.07149300  0.24441700  0.67185000  1
  H  691  1  0.99866100  0.22731200  0.65724900  1
  H  692  1  0.89252800  0.24193500  0.67036000  1
  H  694  1  0.24390200  0.30438000  0.66242100  1
  H  695  1  0.25012300  0.32572700  0.67628900  1
  H  696  1  0.12915200  0.32576600  0.66031900  1
  H  703  1  0.14169400  0.69165900  0.30965300  1
  H  710  1  0.97894000  0.77094000  0.38077400  1
  H  711  1  0.98633400  0.70631400  0.39175000  1
  H  712  1  0.84208800  0.73797700  0.30376100  1
  H  714  1  0.07278900  0.76684600  0.33962700  1
  H  715  1  0.00119900  0.78406400  0.35423700  1
  H  716  1  0.89399500  0.76955800  0.34117600  1
  H  718  1  0.24258800  0.70676100  0.34902000  1
  H  719  1  0.24756400  0.68540300  0.33515500  1
  H  720  1  0.12695100  0.68550000  0.35116700  1
  H  727  1  0.81851400  0.33174700  0.30923700  1
  H  734  1  0.13385500  0.26456500  0.24525900  1
  H  735  1  0.98665800  0.22830900  0.28498100  1
  H  736  1  0.24053300  0.32845000  0.31528700  1
  H  738  1  0.06008900  0.31301200  0.26171400  1
  H  739  1  0.17343800  0.30103400  0.24772800  1
  H  740  1  0.23007300  0.30802800  0.26767000  1
  H  742  1  0.79429100  0.29703300  0.27698600  1
  H  743  1  0.69664700  0.30654500  0.29366200  1
  H  744  1  0.76737800  0.28112100  0.29474200  1
  H  751  1  0.82553400  0.67755200  0.70537800  1
  H  758  1  0.13827700  0.74715800  0.76618000  1
  H  759  1  0.98980000  0.78339700  0.72651800  1
  H  760  1  0.23634700  0.68559600  0.69335600  1
  H  762  1  0.06573200  0.69870700  0.74988500  1
  H  763  1  0.18142800  0.71076700  0.76353500  1
  H  764  1  0.23438300  0.70375300  0.74343900  1
  H  766  1  0.81299100  0.71216200  0.73767500  1
  H  767  1  0.70642200  0.70182200  0.72216500  1
  H  768  1  0.76660000  0.72784200  0.72040800  1
  H  775  1  0.21618500  0.17968100  0.80905900  1
  H  782  1  0.90070200  0.24698200  0.74527800  1
  H  783  1  0.04805600  0.28325100  0.78498500  1
  H  784  1  0.79458600  0.18324000  0.81547600  1
  H  786  1  0.97440400  0.19854100  0.76173500  1
  H  787  1  0.86088200  0.21051700  0.74776800  1
  H  788  1  0.80450800  0.20353300  0.76772400  1
  H  790  1  0.23956700  0.21439800  0.77680500  1
  H  791  1  0.33783400  0.20484000  0.79341000  1
  H  792  1  0.26764400  0.23029800  0.79454000  1
  H  799  1  0.20922700  0.83394600  0.20532100  1
  H  806  1  0.89635200  0.76439500  0.26618400  1
  H  807  1  0.04486000  0.72815300  0.22652500  1
  H  808  1  0.79816100  0.82599100  0.19340600  1
  H  810  1  0.96894200  0.81284300  0.24988700  1
  H  811  1  0.85327000  0.80078700  0.26354100  1
  H  812  1  0.80027400  0.80780100  0.24344600  1
  H  814  1  0.22192000  0.79935300  0.23762800  1
  H  815  1  0.32837000  0.80967000  0.22209500  1
  H  816  1  0.26799700  0.78366000  0.22035500  1
  H  823  1  0.98170700  0.38632000  0.28303500  1
  H  830  1  0.17523600  0.50116600  0.25854700  1
  H  831  1  0.86093800  0.46962900  0.23380500  1
  H  832  1  0.01515000  0.43217900  0.32030600  1
  H  834  1  0.26754000  0.45955200  0.28400300  1
  H  835  1  0.16108100  0.47674500  0.29549200  1
  H  836  1  0.28290700  0.48700600  0.28182900  1
  H  838  1  0.07281700  0.41808200  0.25016000  1
  H  839  1  0.89326600  0.41628600  0.25115200  1
  H  840  1  0.99405700  0.39408500  0.25511900  1
  H  847  1  0.98055800  0.62501400  0.72844300  1
  H  854  1  0.18802300  0.51086400  0.75327900  1
  H  855  1  0.86530700  0.54117500  0.77733700  1
  H  856  1  0.02743500  0.57935300  0.69123600  1
  H  858  1  0.27790000  0.55291000  0.72811000  1
  H  859  1  0.17612900  0.53533700  0.71634600  1
  H  860  1  0.29731700  0.52552100  0.73029300  1
  H  862  1  0.07110900  0.59356000  0.76151400  1
  H  863  1  0.89152200  0.59466100  0.76008500  1
  H  864  1  0.98934400  0.61725200  0.75637700  1
  H  871  1  0.05319900  0.12522900  0.78303400  1
  H  878  1  0.85951600  0.01038500  0.75854700  1
  H  879  1  0.17381600  0.04191900  0.73380300  1
  H  880  1  0.01964200  0.07937100  0.82030500  1
  H  882  1  0.76725200  0.05200000  0.78400600  1
  H  883  1  0.87371200  0.03480500  0.79549300  1
  H  884  1  0.75186800  0.02454600  0.78183200  1
  H  886  1  0.96201100  0.09346900  0.75016100  1
  H  887  1  0.14156300  0.09526000  0.75115000  1
  H  888  1  0.04080400  0.11746400  0.75511900  1
  H  895  1  0.05369000  0.88652100  0.22844600  1
  H  902  1  0.84681500  0.00070400  0.25326700  1
  H  903  1  0.16915900  0.97034000  0.27735500  1
  H  904  1  0.00731400  0.93219000  0.19123700  1
  H  906  1  0.75682400  0.95867500  0.22808500  1
  H  907  1  0.85879800  0.97623300  0.21633300  1
  H  908  1  0.73757900  0.98606700  0.23026800  1
  H  910  1  0.96317500  0.91798500  0.26151200  1
  H  911  1  0.14275800  0.91685800  0.26009600  1
  H  912  1  0.04481900  0.89428200  0.25638000  1
  H  919  1  0.97211700  0.05473100  0.25693700  1
  H  926  1  0.16196000  0.17200400  0.27359200  1
  H  927  1  0.85855000  0.15644000  0.23929300  1
  H  928  1  0.99910600  0.07594400  0.30608500  1
  H  930  1  0.25080100  0.12087100  0.28366800  1
  H  931  1  0.13861500  0.13029600  0.29920300  1
  H  932  1  0.26288800  0.14697100  0.29079900  1
  H  934  1  0.06588000  0.10123100  0.23803300  1
  H  935  1  0.88635200  0.09894500  0.23790800  1
  H  936  1  0.98839200  0.07678000  0.23433700  1
  H  943  1  0.97652800  0.95697000  0.75442200  1
  H  950  1  0.16711000  0.83964300  0.73802400  1
  H  951  1  0.86181800  0.85529200  0.77204400  1
  H  952  1  0.00846700  0.93572600  0.70532800  1
  H  954  1  0.25687400  0.89074400  0.72797900  1
  H  955  1  0.14556900  0.88130100  0.71235600  1
  H  956  1  0.26924100  0.86463000  0.72089200  1
  H  958  1  0.06785200  0.91048400  0.77349600  1
  H  959  1  0.88832900  0.91279200  0.77333200  1
  H  960  1  0.99009300  0.93494700  0.77705200  1
  H  967  1  0.06259700  0.45681000  0.75693500  1
  H  974  1  0.87256000  0.33954700  0.77357900  1
  H  975  1  0.17616900  0.35509700  0.73930200  1
  H  976  1  0.03547200  0.43560000  0.80608500  1
  H  978  1  0.78378200  0.39068500  0.78365000  1
  H  979  1  0.89587500  0.38125400  0.79919200  1
  H  980  1  0.77160700  0.36458600  0.79078000  1
  H  982  1  0.96889400  0.41031000  0.73802900  1
  H  983  1  0.14843100  0.41259400  0.73791400  1
  H  984  1  0.04641700  0.43476100  0.73433500  1
  H  991  1  0.05811500  0.55458200  0.25442400  1
  H  998  1  0.86753300  0.67190900  0.23802800  1
  H  999  1  0.17283000  0.65626000  0.27204900  1
  H  1000  1  0.02622700  0.57582800  0.20533000  1
  H  1002  1  0.77779800  0.62080800  0.22797900  1
  H  1003  1  0.88911900  0.63025300  0.21235700  1
  H  1004  1  0.76543200  0.64692400  0.22089300  1
  H  1006  1  0.96678600  0.60106800  0.27349800  1
  H  1007  1  0.14630900  0.59876000  0.27333500  1
  H  1008  1  0.04453700  0.57660500  0.27705400  1
  N  2  1  0.00816400  0.43981100  0.05650300  1
  N  4  1  0.99891300  0.47068400  0.07213100  1
  N  6  1  0.03258400  0.43838500  0.08514600  1
  N  8  1  0.00252300  0.57144000  0.95480400  1
  N  10  1  0.00175500  0.54055400  0.93929400  1
  N  12  1  0.03513900  0.57281400  0.92630900  1
  N  14  1  0.02659600  0.07174000  0.55650300  1
  N  16  1  0.03580700  0.04086400  0.57213100  1
  N  18  1  0.00221000  0.07316400  0.58514700  1
  N  20  1  0.03215900  0.94011500  0.45481200  1
  N  22  1  0.03301300  0.97100000  0.43930000  1
  N  24  1  0.99966700  0.93873500  0.42631600  1
  N  26  1  0.99372800  0.38971900  0.47701900  1
  N  28  1  0.98852000  0.41427500  0.49840200  1
  N  30  1  0.98931400  0.42535000  0.47119500  1
  N  32  1  0.00121900  0.62187900  0.53470000  1
  N  34  1  0.99275800  0.59751900  0.51321200  1
  N  36  1  0.00671300  0.58614200  0.54038400  1
  N  38  1  0.04082900  0.12183600  0.97701500  1
  N  40  1  0.04609300  0.09728000  0.99839700  1
  N  42  1  0.04525900  0.08620400  0.97119000  1
  N  44  1  0.03343900  0.88967600  0.03469600  1
  N  46  1  0.04189500  0.91403600  0.01320800  1
  N  48  1  0.02794600  0.92541300  0.04038000  1
  N  50  1  0.04167300  0.25704300  0.07224200  1
  N  52  1  0.04988100  0.23044900  0.09232000  1
  N  54  1  0.05059600  0.26530500  0.10007100  1
  N  56  1  0.03865400  0.75437900  0.93925100  1
  N  58  1  0.05023100  0.78106900  0.91926900  1
  N  60  1  0.04624600  0.74626500  0.91140300  1
  N  62  1  0.99297000  0.25450700  0.57224000  1
  N  64  1  0.98474200  0.28109700  0.59232000  1
  N  66  1  0.98401200  0.24623800  0.60006900  1
  N  68  1  0.99598900  0.75717600  0.43925600  1
  N  70  1  0.98447900  0.73048700  0.41927200  1
  N  72  1  0.98840200  0.76529200  0.41140900  1
  N  74  1  0.02980700  0.35687100  0.33778600  1
  N  76  1  0.00831900  0.39298600  0.33263300  1
  N  78  1  0.01242900  0.36935500  0.31077900  1
  N  80  1  0.03717200  0.65471300  0.67389900  1
  N  82  1  0.01744500  0.61854900  0.67893400  1
  N  84  1  0.01497400  0.64211400  0.70081100  1
  N  86  1  0.00490100  0.15468300  0.83778000  1
  N  88  1  0.02639800  0.11856600  0.83263200  1
  N  90  1  0.02255900  0.14219500  0.81077700  1
  N  92  1  0.99755800  0.85683300  0.17389000  1
  N  94  1  0.01713600  0.89299700  0.17893400  1
  N  96  1  0.01961600  0.86942400  0.20080500  1
  N  98  1  0.03789100  0.20544200  0.25863800  1
  N  100  1  0.01979300  0.19150700  0.23199600  1
  N  102  1  0.05426800  0.22744500  0.23578400  1
  N  104  1  0.04168300  0.80625200  0.75285900  1
  N  106  1  0.02276200  0.82017500  0.77949600  1
  N  108  1  0.05705300  0.78423100  0.77571300  1
  N  110  1  0.99674800  0.30610600  0.75863900  1
  N  112  1  0.01481200  0.32003500  0.73199600  1
  N  114  1  0.98037500  0.28409700  0.73578800  1
  N  116  1  0.99294300  0.70529800  0.25286600  1
  N  118  1  0.01188300  0.69137700  0.27950200  1
  N  120  1  0.97759000  0.72732200  0.27571900  1
  N  122  1  0.99529200  0.03356400  0.30407100  1
  N  124  1  0.99247800  0.02429900  0.27622700  1
  N  126  1  0.00903900  0.99839900  0.29622900  1
  N  128  1  0.00452800  0.97813700  0.70733000  1
  N  130  1  0.00066300  0.98736900  0.73517600  1
  N  132  1  0.01908500  0.01327600  0.71521900  1
  N  134  1  0.03939700  0.47798000  0.80406800  1
  N  136  1  0.04214700  0.48724200  0.77622400  1
  N  138  1  0.02568500  0.51314600  0.79622500  1
  N  140  1  0.03017200  0.53341600  0.20733100  1
  N  142  1  0.03404100  0.52418300  0.23517700  1
  N  144  1  0.01566200  0.49827500  0.21522000  1
  N  147  1  0.97260300  0.50475100  0.98350900  1
  N  157  1  0.92702600  0.50447000  0.02726400  1
  N  171  1  0.06222700  0.00680500  0.48351400  1
  N  181  1  0.10780700  0.00709400  0.52725700  1
  N  195  1  0.02240800  0.32496300  0.06391300  1
  N  205  1  0.13333400  0.37378400  0.07958000  1
  N  219  1  0.02499100  0.68648000  0.94766600  1
  N  229  1  0.12148400  0.63766900  0.93066800  1
  N  243  1  0.01229100  0.18658700  0.56390500  1
  N  253  1  0.90133000  0.13776200  0.57956400  1
  N  267  1  0.00972700  0.82507600  0.44767100  1
  N  277  1  0.91313300  0.87388900  0.43068500  1
  N  291  1  0.09931500  0.46992000  0.13031600  1
  N  301  1  0.01682200  0.51203100  0.15654600  1
  N  315  1  0.10992300  0.54122000  0.88131400  1
  N  325  1  0.02641400  0.49925800  0.85486700  1
  N  339  1  0.93538300  0.04162400  0.63031400  1
  N  349  1  0.01796200  0.99952100  0.65654600  1
  N  363  1  0.92489800  0.97032700  0.38131800  1
  N  373  1  0.00831500  0.01229100  0.35487100  1
  N  387  1  0.98454300  0.47927400  0.51309100  1
  N  397  1  0.93518000  0.53224700  0.50036800  1
  N  411  1  0.05010400  0.03228100  0.01308600  1
  N  421  1  0.09945800  0.97930800  0.00036200  1
  N  435  1  0.94626100  0.39974100  0.38488100  1
  N  445  1  0.00569500  0.37836200  0.42448800  1
  N  459  1  0.96410500  0.61136200  0.62668800  1
  N  469  1  0.01701100  0.63312400  0.58716600  1
  N  483  1  0.08831900  0.11181800  0.88487900  1
  N  493  1  0.02880100  0.13319400  0.92448500  1
  N  507  1  0.07052200  0.90020000  0.12668600  1
  N  517  1  0.01769300  0.87843300  0.08716200  1
  N  531  1  0.99533300  0.34015400  0.51272000  1
  N  541  1  0.93173000  0.32609300  0.55427200  1
  N  555  1  0.99492600  0.67164400  0.49905600  1
  N  565  1  0.92674500  0.68592200  0.45756600  1
  N  579  1  0.03927000  0.17139900  0.01271800  1
  N  589  1  0.10291200  0.18545800  0.05426900  1
  N  603  1  0.03972900  0.83991200  0.99905100  1
  N  613  1  0.10794000  0.82563400  0.95756300  1
  N  627  1  0.12313400  0.23283100  0.18425900  1
  N  637  1  0.04619900  0.21475600  0.14432700  1
  N  651  1  0.12396800  0.77880000  0.82729300  1
  N  661  1  0.04696200  0.79692200  0.86722700  1
  N  675  1  0.91150500  0.27870100  0.68426000  1
  N  685  1  0.98842300  0.29678300  0.64432900  1
  N  699  1  0.91071100  0.73275700  0.32729900  1
  N  709  1  0.98768500  0.71463300  0.36723200  1
  N  723  1  0.15258000  0.30481700  0.30168000  1
  N  733  1  0.01821500  0.25954600  0.28945800  1
  N  747  1  0.15122300  0.70818700  0.70827900  1
  N  757  1  0.02153100  0.75217200  0.72200700  1
  N  771  1  0.88235300  0.20681900  0.80179200  1
  N  781  1  0.01646500  0.25201800  0.78947400  1
  N  795  1  0.88333200  0.80338600  0.20831000  1
  N  805  1  0.01312600  0.75937900  0.22201200  1
  N  819  1  0.01016600  0.44257500  0.29631500  1
  N  829  1  0.92858500  0.45647100  0.25544500  1
  N  843  1  0.01994500  0.56890200  0.71519900  1
  N  853  1  0.93415200  0.55463700  0.75586400  1
  N  867  1  0.02462300  0.06897500  0.79631600  1
  N  877  1  0.10618800  0.05507800  0.75544500  1
  N  891  1  0.01472800  0.94263700  0.21520100  1
  N  901  1  0.10036700  0.95689000  0.25587500  1
  N  915  1  0.99629400  0.09837200  0.28785300  1
  N  925  1  0.92071100  0.13307000  0.25505700  1
  N  939  1  0.00348100  0.91330800  0.72356500  1
  N  949  1  0.92503400  0.87863300  0.75631400  1
  N  963  1  0.03833000  0.41317000  0.78785300  1
  N  973  1  0.11398800  0.37846900  0.75506300  1
  N  987  1  0.03119300  0.59824400  0.22356700  1
  N  997  1  0.10962300  0.63292000  0.25631600  1
