# generated using pymatgen
data_H36C41N12
_symmetry_space_group_name_H-M   'P 1'
_cell_length_a   23.21335000
_cell_length_b   33.16200000
_cell_length_c   63.92300000
_cell_angle_alpha   90.00000000
_cell_angle_beta   90.00000000
_cell_angle_gamma   90.82600000
_symmetry_Int_Tables_number   1
_chemical_formula_structural   H36C41N12
_chemical_formula_sum   'H576 C656 N192'
_cell_volume   49202.88308911
_cell_formula_units_Z   16
loop_
 _symmetry_equiv_pos_site_id
 _symmetry_equiv_pos_as_xyz
  1  'x, y, z'
loop_
 _atom_site_type_symbol
 _atom_site_label
 _atom_site_symmetry_multiplicity
 _atom_site_fract_x
 _atom_site_fract_y
 _atom_site_fract_z
 _atom_site_occupancy
  C  1  1  0.27235400  0.96529600  0.18024200  1
  C  2  1  0.23303500  0.95483300  0.16411300  1
  C  3  1  0.24749400  0.95931800  0.14275500  1
  C  4  1  0.30166100  0.97522500  0.13610100  1
  C  5  1  0.34172200  0.98340100  0.15253100  1
  C  6  1  0.32744800  0.97935300  0.17390400  1
  C  7  1  0.31941700  0.97951200  0.11290500  1
  C  8  1  0.35807300  0.94214900  0.11056100  1
  C  9  1  0.41894000  0.94406500  0.11319100  1
  C  10  1  0.45375500  0.90956200  0.11292700  1
  C  11  1  0.43008300  0.87020600  0.11061700  1
  C  12  1  0.36928900  0.86744400  0.10890500  1
  C  13  1  0.33458500  0.90227800  0.10922900  1
  C  14  1  0.26834300  0.98124200  0.09735600  1
  C  15  1  0.35111300  0.01991600  0.10843000  1
  C  16  1  0.38708800  0.02472900  0.09057200  1
  C  17  1  0.42152900  0.05966100  0.08734600  1
  C  18  1  0.41960500  0.09303700  0.10116300  1
  C  19  1  0.37918800  0.09044300  0.11769300  1
  C  20  1  0.34546400  0.05517000  0.12097100  1
  C  21  1  0.22193600  0.00797000  0.10089100  1
  C  22  1  0.17423100  0.01067800  0.08724100  1
  C  23  1  0.17021400  0.98786600  0.06851100  1
  C  24  1  0.21780100  0.96294800  0.06408000  1
  C  25  1  0.26542000  0.96015900  0.07794000  1
  C  42  1  0.45832100  0.12571300  0.09873300  1
  C  43  1  0.25724500  0.95987400  0.20134200  1
  C  46  1  0.46707100  0.83680700  0.11059400  1
  C  48  1  0.12009400  0.99028000  0.05593600  1
  C  50  1  0.75990300  0.96799000  0.83905000  1
  C  51  1  0.79946100  0.95694000  0.85485500  1
  C  52  1  0.78700100  0.96214700  0.87631800  1
  C  53  1  0.73480300  0.97941100  0.88339700  1
  C  54  1  0.69440100  0.98835700  0.86729900  1
  C  55  1  0.70669700  0.98359000  0.84582700  1
  C  56  1  0.71857900  0.98329200  0.90673400  1
  C  57  1  0.67974900  0.94529700  0.90912900  1
  C  58  1  0.61902500  0.94604000  0.90613800  1
  C  59  1  0.58414900  0.91086200  0.90629600  1
  C  60  1  0.60774000  0.87201400  0.90882400  1
  C  61  1  0.66842500  0.87041500  0.91089100  1
  C  62  1  0.70314500  0.90589900  0.91067300  1
  C  63  1  0.77022300  0.98505000  0.92203800  1
  C  64  1  0.68791500  0.02332900  0.91147700  1
  C  65  1  0.65047500  0.02724400  0.92893400  1
  C  66  1  0.61660500  0.06181100  0.93206100  1
  C  67  1  0.62046400  0.09567300  0.91856900  1
  C  68  1  0.66249700  0.09399600  0.90256800  1
  C  69  1  0.69579900  0.05913600  0.89941800  1
  C  70  1  0.81879100  0.01050300  0.91800400  1
  C  71  1  0.86702100  0.01275300  0.93149800  1
  C  72  1  0.86941300  0.99088200  0.95055400  1
  C  73  1  0.81963100  0.96753200  0.95550200  1
  C  74  1  0.77150600  0.96521300  0.94181900  1
  C  91  1  0.58207500  0.12788500  0.92081200  1
  C  92  1  0.77262100  0.96141100  0.81785400  1
  C  95  1  0.57091900  0.83784600  0.90872600  1
  C  97  1  0.91983700  0.99281200  0.96305000  1
  C  99  1  0.76136900  0.49630800  0.18018700  1
  C  100  1  0.80129100  0.50761700  0.16439000  1
  C  101  1  0.78823900  0.50326600  0.14290700  1
  C  102  1  0.73504500  0.48653100  0.13578900  1
  C  103  1  0.69427700  0.47750200  0.15187000  1
  C  104  1  0.70711700  0.48149500  0.17335700  1
  C  105  1  0.71878700  0.48236900  0.11245400  1
  C  106  1  0.68037500  0.51978300  0.10991600  1
  C  107  1  0.61955900  0.51808500  0.11270200  1
  C  108  1  0.58495500  0.55269500  0.11245400  1
  C  109  1  0.60884100  0.59196100  0.11002000  1
  C  110  1  0.66960900  0.59452100  0.10814700  1
  C  111  1  0.70408500  0.55958000  0.10845100  1
  C  112  1  0.77054100  0.48083700  0.09721400  1
  C  113  1  0.68757900  0.44188500  0.10779700  1
  C  114  1  0.65079700  0.43718000  0.09015800  1
  C  115  1  0.61683300  0.40201600  0.08694300  1
  C  116  1  0.62000300  0.36836500  0.10054800  1
  C  117  1  0.66133900  0.37090500  0.11677900  1
  C  118  1  0.69467100  0.40635900  0.12002200  1
  C  119  1  0.81779300  0.45510900  0.10122500  1
  C  120  1  0.86580000  0.45247600  0.08770600  1
  C  121  1  0.86928600  0.47428700  0.06864300  1
  C  122  1  0.82087100  0.49809100  0.06375200  1
  C  123  1  0.77295100  0.50080200  0.07747500  1
  C  140  1  0.58168700  0.33542700  0.09819300  1
  C  141  1  0.77521700  0.50143800  0.20143800  1
  C  144  1  0.57208700  0.62547800  0.11002100  1
  C  146  1  0.91953700  0.47188900  0.05613500  1
  C  148  1  0.27275900  0.49363900  0.83900400  1
  C  149  1  0.23354200  0.50329300  0.85516700  1
  C  150  1  0.24777400  0.49840700  0.87650400  1
  C  151  1  0.30160400  0.48292100  0.88310100  1
  C  152  1  0.34151500  0.47540000  0.86664200  1
  C  153  1  0.32745200  0.47983300  0.84528500  1
  C  154  1  0.31948600  0.47896400  0.90628200  1
  C  155  1  0.35838500  0.51699100  0.90849300  1
  C  156  1  0.41926800  0.51611600  0.90596000  1
  C  157  1  0.45420900  0.55126200  0.90617400  1
  C  158  1  0.43059900  0.59018400  0.90835800  1
  C  159  1  0.36981100  0.59189100  0.90994100  1
  C  160  1  0.33501900  0.55644300  0.90965300  1
  C  161  1  0.26862100  0.47692000  0.92194100  1
  C  162  1  0.35080500  0.43904700  0.91078000  1
  C  163  1  0.38690600  0.43487600  0.92859600  1
  C  164  1  0.42121500  0.40055300  0.93179900  1
  C  165  1  0.41914100  0.36712300  0.91798500  1
  C  166  1  0.37857700  0.36899900  0.90150100  1
  C  167  1  0.34490300  0.40365600  0.89826500  1
  C  168  1  0.22131500  0.44996700  0.91855000  1
  C  169  1  0.17340900  0.44752700  0.93218200  1
  C  170  1  0.17012000  0.47082800  0.95074800  1
  C  171  1  0.21871000  0.49580800  0.95509700  1
  C  172  1  0.26650200  0.49831100  0.94126800  1
  C  189  1  0.45781100  0.33514000  0.92042100  1
  C  190  1  0.25799200  0.49966800  0.81794000  1
  C  193  1  0.46752900  0.62430200  0.90839200  1
  C  195  1  0.11985200  0.46877700  0.96330800  1
  C  197  1  0.76047500  0.97262500  0.68011300  1
  C  198  1  0.71815900  0.96561000  0.66451300  1
  C  199  1  0.73195300  0.96646700  0.64298100  1
  C  200  1  0.78837500  0.97579100  0.63562500  1
  C  201  1  0.83098500  0.98015200  0.65159500  1
  C  202  1  0.81763300  0.97912600  0.67313300  1
  C  203  1  0.80513100  0.97983700  0.61229700  1
  C  204  1  0.84335700  0.94231400  0.60951700  1
  C  205  1  0.90465900  0.94420700  0.60951400  1
  C  206  1  0.93912300  0.90954400  0.60894300  1
  C  207  1  0.91486900  0.87010900  0.60885400  1
  C  208  1  0.85392300  0.86745100  0.60954400  1
  C  209  1  0.81957900  0.90244200  0.61013200  1
  C  210  1  0.75360100  0.98159000  0.59688200  1
  C  211  1  0.83697300  0.02035000  0.60800800  1
  C  212  1  0.86857000  0.02659300  0.58919000  1
  C  213  1  0.90269900  0.06159700  0.58569500  1
  C  214  1  0.90482400  0.09368200  0.60033300  1
  C  215  1  0.86885000  0.08975600  0.61808900  1
  C  216  1  0.83540900  0.05446200  0.62157400  1
  C  217  1  0.70982500  0.01076900  0.59957600  1
  C  218  1  0.66184100  0.01374200  0.58606600  1
  C  219  1  0.65487500  0.98859200  0.56827200  1
  C  220  1  0.69973300  0.96091900  0.56463400  1
  C  221  1  0.74759100  0.95790200  0.57836300  1
  C  238  1  0.94321300  0.12640100  0.59750300  1
  C  239  1  0.74492000  0.97462600  0.70129800  1
  C  242  1  0.95162500  0.83659500  0.60868700  1
  C  244  1  0.60451100  0.99135300  0.55587000  1
  C  246  1  0.24379200  0.96628000  0.33870600  1
  C  247  1  0.27598800  0.94724500  0.35460500  1
  C  248  1  0.26419400  0.95377600  0.37600800  1
  C  249  1  0.22033800  0.98016700  0.38295300  1
  C  250  1  0.18699500  0.99769800  0.36667100  1
  C  251  1  0.19878100  0.99161500  0.34523400  1
  C  252  1  0.20388500  0.98308100  0.40632900  1
  C  253  1  0.16569600  0.94466400  0.40821400  1
  C  254  1  0.10831900  0.94395200  0.40032700  1
  C  255  1  0.07314800  0.90894900  0.40042400  1
  C  256  1  0.09367900  0.87148400  0.40769800  1
  C  257  1  0.15170700  0.87098200  0.41455300  1
  C  258  1  0.18666300  0.90637900  0.41452200  1
  C  259  1  0.25598300  0.98490300  0.42139400  1
  C  260  1  0.17196200  0.02221700  0.41184100  1
  C  261  1  0.12519500  0.02311200  0.42618000  1
  C  262  1  0.09136900  0.05774300  0.42902200  1
  C  263  1  0.10370700  0.09438800  0.41840300  1
  C  264  1  0.15419200  0.09520800  0.40595800  1
  C  265  1  0.18793300  0.06037300  0.40320800  1
  C  266  1  0.30950500  0.00312000  0.41566100  1
  C  267  1  0.35733200  0.00498400  0.42934100  1
  C  268  1  0.35479600  0.98989800  0.45010500  1
  C  269  1  0.30050200  0.97412800  0.45651100  1
  C  270  1  0.25257300  0.97246200  0.44270700  1
  C  287  1  0.06560400  0.12695000  0.42008800  1
  C  288  1  0.25337400  0.95713500  0.31760700  1
  C  291  1  0.05646100  0.83757400  0.40771500  1
  C  293  1  0.40475700  0.99141300  0.46287900  1
  C  295  1  0.24427200  0.49829000  0.68059700  1
  C  296  1  0.27556600  0.51902600  0.66481700  1
  C  297  1  0.26346300  0.51295200  0.64337800  1
  C  298  1  0.22027000  0.48531900  0.63627600  1
  C  299  1  0.18782100  0.46599900  0.65245300  1
  C  300  1  0.19988000  0.47166600  0.67391400  1
  C  301  1  0.20401700  0.48250800  0.61286500  1
  C  302  1  0.16642700  0.52048300  0.61098000  1
  C  303  1  0.10973900  0.52071800  0.61949800  1
  C  304  1  0.07480800  0.55513200  0.61931000  1
  C  305  1  0.09490900  0.59253700  0.61126900  1
  C  306  1  0.15232300  0.59358300  0.60373200  1
  C  307  1  0.18703700  0.55872900  0.60382800  1
  C  308  1  0.25640300  0.48113600  0.59793900  1
  C  309  1  0.17145200  0.44305500  0.60723600  1
  C  310  1  0.12337600  0.44175800  0.59346800  1
  C  311  1  0.08947600  0.40650600  0.59059300  1
  C  312  1  0.10292800  0.36970100  0.60061600  1
  C  313  1  0.15445300  0.36946000  0.61247700  1
  C  314  1  0.18830700  0.40489900  0.61523500  1
  C  315  1  0.30988300  0.46426500  0.60396100  1
  C  316  1  0.35752900  0.46204600  0.59025800  1
  C  317  1  0.35491600  0.47543600  0.56919900  1
  C  318  1  0.30076800  0.49004100  0.56257800  1
  C  319  1  0.25299100  0.49205600  0.57641200  1
  C  336  1  0.06495300  0.33634000  0.59893900  1
  C  337  1  0.25428300  0.50672800  0.70177700  1
  C  340  1  0.05766100  0.62571400  0.61109300  1
  C  342  1  0.40467300  0.47339700  0.55638000  1
  C  344  1  0.76087100  0.48568700  0.33904700  1
  C  345  1  0.71848100  0.49179100  0.35462800  1
  C  346  1  0.73210700  0.49084700  0.37617100  1
  C  347  1  0.78839300  0.48229400  0.38354900  1
  C  348  1  0.83104500  0.47867500  0.36760000  1
  C  349  1  0.81788100  0.47984500  0.34605400  1
  C  350  1  0.80515200  0.47863900  0.40688300  1
  C  351  1  0.84370500  0.51678600  0.40951900  1
  C  352  1  0.90497500  0.51596500  0.40974100  1
  C  353  1  0.93954100  0.55127400  0.41030600  1
  C  354  1  0.91536300  0.59024200  0.41016700  1
  C  355  1  0.85446900  0.59180700  0.40924200  1
  C  356  1  0.82005000  0.55620200  0.40866500  1
  C  357  1  0.75378300  0.47665400  0.42239500  1
  C  358  1  0.83652500  0.43858300  0.41122100  1
  C  359  1  0.86811500  0.43286500  0.43003000  1
  C  360  1  0.90214100  0.39847500  0.43350100  1
  C  361  1  0.90420900  0.36642900  0.41885500  1
  C  362  1  0.86813900  0.36972300  0.40112600  1
  C  363  1  0.83482100  0.40443100  0.39765500  1
  C  364  1  0.70914100  0.44717500  0.41989200  1
  C  365  1  0.66096900  0.44438800  0.43339600  1
  C  366  1  0.65472900  0.47000700  0.45099900  1
  C  367  1  0.70056900  0.49785200  0.45450900  1
  C  368  1  0.74858300  0.50066600  0.44080200  1
  C  385  1  0.94257900  0.33441300  0.42168100  1
  C  386  1  0.74560300  0.48352400  0.31783800  1
  C  389  1  0.95203900  0.62448000  0.41039200  1
  C  391  1  0.60421900  0.46751900  0.46340100  1
  C  393  1  0.06783000  0.97957200  0.02372300  1
  C  394  1  0.04654300  0.01687900  0.01590300  1
  C  395  1  0.99540900  0.01730700  0.00323900  1
  C  396  1  0.97199500  0.98044900  0.99507900  1
  C  397  1  0.99605700  0.94307200  0.00160900  1
  C  398  1  0.04161800  0.94262400  0.01686300  1
  C  413  1  0.97188500  0.48234500  0.02391200  1
  C  414  1  0.99352900  0.44504800  0.01621900  1
  C  415  1  0.04469400  0.44470800  0.00357200  1
  C  416  1  0.06776300  0.48157300  0.99529700  1
  C  417  1  0.04343500  0.51891800  0.00174100  1
  C  418  1  0.99782700  0.51932800  0.01697400  1
  C  433  1  0.55113700  0.97974700  0.52392100  1
  C  434  1  0.53060500  0.01703200  0.51579500  1
  C  435  1  0.47949700  0.01759000  0.50311900  1
  C  436  1  0.45526900  0.98071200  0.49530700  1
  C  437  1  0.47859500  0.94328800  0.50211000  1
  C  438  1  0.52421300  0.94284700  0.51734200  1
  C  453  1  0.45515400  0.48182300  0.52373000  1
  C  454  1  0.47766500  0.44452700  0.51640100  1
  C  455  1  0.52877000  0.44433400  0.50371700  1
  C  456  1  0.55101500  0.48117200  0.49511400  1
  C  457  1  0.52593100  0.51845300  0.50127600  1
  C  458  1  0.48029100  0.51885400  0.51649800  1
  C  473  1  0.48528300  0.19472100  0.10591800  1
  C  474  1  0.50026700  0.21379600  0.08661200  1
  C  475  1  0.54044500  0.24700600  0.08654800  1
  C  476  1  0.55516700  0.26648500  0.10577100  1
  C  477  1  0.53601700  0.24951500  0.12513300  1
  C  478  1  0.50439500  0.21200500  0.12521200  1
  C  493  1  0.55539700  0.19635600  0.91327800  1
  C  494  1  0.54012100  0.21537600  0.93249200  1
  C  495  1  0.49988500  0.24776000  0.93238500  1
  C  496  1  0.48529900  0.26673600  0.91308600  1
  C  497  1  0.50487800  0.24996800  0.89381900  1
  C  498  1  0.53662000  0.21313000  0.89390600  1
  C  513  1  0.55357700  0.76710100  0.90952700  1
  C  514  1  0.53664900  0.74898000  0.92888300  1
  C  515  1  0.50093600  0.71327700  0.92878700  1
  C  516  1  0.48506100  0.69503200  0.90934800  1
  C  517  1  0.50167100  0.71333100  0.89000800  1
  C  518  1  0.53807300  0.74866000  0.89010500  1
  C  533  1  0.48529300  0.76645600  0.10958000  1
  C  534  1  0.50231500  0.74894500  0.09016600  1
  C  535  1  0.53834700  0.71410400  0.09012000  1
  C  536  1  0.55437300  0.69590100  0.10947500  1
  C  537  1  0.53769500  0.71360100  0.12887800  1
  C  538  1  0.50115300  0.74814700  0.12892300  1
  C  553  1  0.97137700  0.19506200  0.60540100  1
  C  554  1  0.98476900  0.21489100  0.58614500  1
  C  555  1  0.02483100  0.24817300  0.58600300  1
  C  556  1  0.04123700  0.26682300  0.60526700  1
  C  557  1  0.02336400  0.24928000  0.62464300  1
  C  558  1  0.99169500  0.21178700  0.62467300  1
  C  573  1  0.04133700  0.19599400  0.41371000  1
  C  574  1  0.02459300  0.21419100  0.43297100  1
  C  575  1  0.98446300  0.24664100  0.43282800  1
  C  576  1  0.97131700  0.26639500  0.41359700  1
  C  577  1  0.99194100  0.25019700  0.39433800  1
  C  578  1  0.02368000  0.21335900  0.39434600  1
  C  593  1  0.03815000  0.76705900  0.40991200  1
  C  594  1  0.02050700  0.74937700  0.42929000  1
  C  595  1  0.98454500  0.71379800  0.42924000  1
  C  596  1  0.96920500  0.69520400  0.40983500  1
  C  597  1  0.98645100  0.71308500  0.39046600  1
  C  598  1  0.02307200  0.74830000  0.39052100  1
  C  613  1  0.96945300  0.76622500  0.60903700  1
  C  614  1  0.98605100  0.74841900  0.58964500  1
  C  615  1  0.02229900  0.71369400  0.58964000  1
  C  616  1  0.03895300  0.69588900  0.60902100  1
  C  617  1  0.02265400  0.71388300  0.62840100  1
  C  618  1  0.98584500  0.74828200  0.62840700  1
  C  633  1  0.27143400  0.97769600  0.23743100  1
  C  634  1  0.21953700  0.99294500  0.24617300  1
  C  635  1  0.21018200  0.99035900  0.26830200  1
  C  636  1  0.25654800  0.97965500  0.28177600  1
  C  637  1  0.31101800  0.96931300  0.27305500  1
  C  638  1  0.31658100  0.96465900  0.25085600  1
  C  653  1  0.75681900  0.97614300  0.78183700  1
  C  654  1  0.79950700  0.00057200  0.77167500  1
  C  655  1  0.80486500  0.99905800  0.74932600  1
  C  656  1  0.77140800  0.97039500  0.73767500  1
  C  657  1  0.73194100  0.94387000  0.74814700  1
  C  658  1  0.72104900  0.94926100  0.77001800  1
  C  673  1  0.75615900  0.48784000  0.23741500  1
  C  674  1  0.79699700  0.46227500  0.24728000  1
  C  675  1  0.80588100  0.46507300  0.26945100  1
  C  676  1  0.77143700  0.49164900  0.28161200  1
  C  677  1  0.73163300  0.51783800  0.27162000  1
  C  678  1  0.72158100  0.51423700  0.24957500  1
  C  693  1  0.27196600  0.48313800  0.78172000  1
  C  694  1  0.21947600  0.46815000  0.77282900  1
  C  695  1  0.21021100  0.47160300  0.75073600  1
  C  696  1  0.25697600  0.48292700  0.73737400  1
  C  697  1  0.31185400  0.49300000  0.74618600  1
  C  698  1  0.31762100  0.49674900  0.76843000  1
  C  1425  1  0.78929800  0.96529600  0.18024200  1
  C  1426  1  0.74997900  0.95483300  0.16411300  1
  C  1427  1  0.76443800  0.95931800  0.14275500  1
  C  1428  1  0.81860500  0.97522500  0.13610100  1
  C  1429  1  0.85866600  0.98340100  0.15253100  1
  C  1430  1  0.84439200  0.97935300  0.17390400  1
  C  1431  1  0.83636100  0.97951200  0.11290500  1
  C  1432  1  0.87501700  0.94214900  0.11056100  1
  C  1433  1  0.93588400  0.94406500  0.11319100  1
  C  1434  1  0.97069900  0.90956200  0.11292700  1
  C  1435  1  0.94702700  0.87020600  0.11061700  1
  C  1436  1  0.88623300  0.86744400  0.10890500  1
  C  1437  1  0.85152900  0.90227800  0.10922900  1
  C  1438  1  0.78528700  0.98124200  0.09735600  1
  C  1439  1  0.86805700  0.01991600  0.10843000  1
  C  1440  1  0.90403200  0.02472900  0.09057200  1
  C  1441  1  0.93847300  0.05966100  0.08734600  1
  C  1442  1  0.93654900  0.09303700  0.10116300  1
  C  1443  1  0.89613200  0.09044300  0.11769300  1
  C  1444  1  0.86240800  0.05517000  0.12097100  1
  C  1445  1  0.73888000  0.00797000  0.10089100  1
  C  1446  1  0.69117500  0.01067800  0.08724100  1
  C  1447  1  0.68715800  0.98786600  0.06851100  1
  C  1448  1  0.73474500  0.96294800  0.06408000  1
  C  1449  1  0.78236400  0.96015900  0.07794000  1
  C  1466  1  0.97526500  0.12571300  0.09873300  1
  C  1467  1  0.77418900  0.95987400  0.20134200  1
  C  1470  1  0.98401500  0.83680700  0.11059400  1
  C  1472  1  0.63703800  0.99028000  0.05593600  1
  C  1474  1  0.27684700  0.96799000  0.83905000  1
  C  1475  1  0.31640500  0.95694000  0.85485500  1
  C  1476  1  0.30394500  0.96214700  0.87631800  1
  C  1477  1  0.25174700  0.97941100  0.88339700  1
  C  1478  1  0.21134500  0.98835700  0.86729900  1
  C  1479  1  0.22364100  0.98359000  0.84582700  1
  C  1480  1  0.23552300  0.98329200  0.90673400  1
  C  1481  1  0.19669300  0.94529700  0.90912900  1
  C  1482  1  0.13596900  0.94604000  0.90613800  1
  C  1483  1  0.10109300  0.91086200  0.90629600  1
  C  1484  1  0.12468400  0.87201400  0.90882400  1
  C  1485  1  0.18536900  0.87041500  0.91089100  1
  C  1486  1  0.22008900  0.90589900  0.91067300  1
  C  1487  1  0.28716700  0.98505000  0.92203800  1
  C  1488  1  0.20485900  0.02332900  0.91147700  1
  C  1489  1  0.16741900  0.02724400  0.92893400  1
  C  1490  1  0.13354900  0.06181100  0.93206100  1
  C  1491  1  0.13740800  0.09567300  0.91856900  1
  C  1492  1  0.17944100  0.09399600  0.90256800  1
  C  1493  1  0.21274300  0.05913600  0.89941800  1
  C  1494  1  0.33573500  0.01050300  0.91800400  1
  C  1495  1  0.38396500  0.01275300  0.93149800  1
  C  1496  1  0.38635700  0.99088200  0.95055400  1
  C  1497  1  0.33657500  0.96753200  0.95550200  1
  C  1498  1  0.28845000  0.96521300  0.94181900  1
  C  1515  1  0.09901900  0.12788500  0.92081200  1
  C  1516  1  0.28956500  0.96141100  0.81785400  1
  C  1519  1  0.08786300  0.83784600  0.90872600  1
  C  1521  1  0.43678100  0.99281200  0.96305000  1
  C  1523  1  0.27831300  0.49630800  0.18018700  1
  C  1524  1  0.31823500  0.50761700  0.16439000  1
  C  1525  1  0.30518300  0.50326600  0.14290700  1
  C  1526  1  0.25198900  0.48653100  0.13578900  1
  C  1527  1  0.21122100  0.47750200  0.15187000  1
  C  1528  1  0.22406100  0.48149500  0.17335700  1
  C  1529  1  0.23573100  0.48236900  0.11245400  1
  C  1530  1  0.19731900  0.51978300  0.10991600  1
  C  1531  1  0.13650300  0.51808500  0.11270200  1
  C  1532  1  0.10189900  0.55269500  0.11245400  1
  C  1533  1  0.12578500  0.59196100  0.11002000  1
  C  1534  1  0.18655300  0.59452100  0.10814700  1
  C  1535  1  0.22102900  0.55958000  0.10845100  1
  C  1536  1  0.28748500  0.48083700  0.09721400  1
  C  1537  1  0.20452300  0.44188500  0.10779700  1
  C  1538  1  0.16774100  0.43718000  0.09015800  1
  C  1539  1  0.13377700  0.40201600  0.08694300  1
  C  1540  1  0.13694700  0.36836500  0.10054800  1
  C  1541  1  0.17828300  0.37090500  0.11677900  1
  C  1542  1  0.21161500  0.40635900  0.12002200  1
  C  1543  1  0.33473700  0.45510900  0.10122500  1
  C  1544  1  0.38274400  0.45247600  0.08770600  1
  C  1545  1  0.38623000  0.47428700  0.06864300  1
  C  1546  1  0.33781500  0.49809100  0.06375200  1
  C  1547  1  0.28989500  0.50080200  0.07747500  1
  C  1564  1  0.09863100  0.33542700  0.09819300  1
  C  1565  1  0.29216100  0.50143800  0.20143800  1
  C  1568  1  0.08903100  0.62547800  0.11002100  1
  C  1570  1  0.43648100  0.47188900  0.05613500  1
  C  1572  1  0.78970300  0.49363900  0.83900400  1
  C  1573  1  0.75048600  0.50329300  0.85516700  1
  C  1574  1  0.76471800  0.49840700  0.87650400  1
  C  1575  1  0.81854800  0.48292100  0.88310100  1
  C  1576  1  0.85845900  0.47540000  0.86664200  1
  C  1577  1  0.84439600  0.47983300  0.84528500  1
  C  1578  1  0.83643000  0.47896400  0.90628200  1
  C  1579  1  0.87532900  0.51699100  0.90849300  1
  C  1580  1  0.93621200  0.51611600  0.90596000  1
  C  1581  1  0.97115300  0.55126200  0.90617400  1
  C  1582  1  0.94754300  0.59018400  0.90835800  1
  C  1583  1  0.88675500  0.59189100  0.90994100  1
  C  1584  1  0.85196300  0.55644300  0.90965300  1
  C  1585  1  0.78556500  0.47692000  0.92194100  1
  C  1586  1  0.86774900  0.43904700  0.91078000  1
  C  1587  1  0.90385000  0.43487600  0.92859600  1
  C  1588  1  0.93815900  0.40055300  0.93179900  1
  C  1589  1  0.93608500  0.36712300  0.91798500  1
  C  1590  1  0.89552100  0.36899900  0.90150100  1
  C  1591  1  0.86184700  0.40365600  0.89826500  1
  C  1592  1  0.73825900  0.44996700  0.91855000  1
  C  1593  1  0.69035300  0.44752700  0.93218200  1
  C  1594  1  0.68706400  0.47082800  0.95074800  1
  C  1595  1  0.73565400  0.49580800  0.95509700  1
  C  1596  1  0.78344600  0.49831100  0.94126800  1
  C  1613  1  0.97475500  0.33514000  0.92042100  1
  C  1614  1  0.77493600  0.49966800  0.81794000  1
  C  1617  1  0.98447300  0.62430200  0.90839200  1
  C  1619  1  0.63679600  0.46877700  0.96330800  1
  C  1621  1  0.27741900  0.97262500  0.68011300  1
  C  1622  1  0.23510300  0.96561000  0.66451300  1
  C  1623  1  0.24889700  0.96646700  0.64298100  1
  C  1624  1  0.30531900  0.97579100  0.63562500  1
  C  1625  1  0.34792900  0.98015200  0.65159500  1
  C  1626  1  0.33457700  0.97912600  0.67313300  1
  C  1627  1  0.32207500  0.97983700  0.61229700  1
  C  1628  1  0.36030100  0.94231400  0.60951700  1
  C  1629  1  0.42160300  0.94420700  0.60951400  1
  C  1630  1  0.45606700  0.90954400  0.60894300  1
  C  1631  1  0.43181300  0.87010900  0.60885400  1
  C  1632  1  0.37086700  0.86745100  0.60954400  1
  C  1633  1  0.33652300  0.90244200  0.61013200  1
  C  1634  1  0.27054500  0.98159000  0.59688200  1
  C  1635  1  0.35391700  0.02035000  0.60800800  1
  C  1636  1  0.38551400  0.02659300  0.58919000  1
  C  1637  1  0.41964300  0.06159700  0.58569500  1
  C  1638  1  0.42176800  0.09368200  0.60033300  1
  C  1639  1  0.38579400  0.08975600  0.61808900  1
  C  1640  1  0.35235300  0.05446200  0.62157400  1
  C  1641  1  0.22676900  0.01076900  0.59957600  1
  C  1642  1  0.17878500  0.01374200  0.58606600  1
  C  1643  1  0.17181900  0.98859200  0.56827200  1
  C  1644  1  0.21667700  0.96091900  0.56463400  1
  C  1645  1  0.26453500  0.95790200  0.57836300  1
  C  1662  1  0.46015700  0.12640100  0.59750300  1
  C  1663  1  0.26186400  0.97462600  0.70129800  1
  C  1666  1  0.46856900  0.83659500  0.60868700  1
  C  1668  1  0.12145500  0.99135300  0.55587000  1
  C  1670  1  0.76073600  0.96628000  0.33870600  1
  C  1671  1  0.79293200  0.94724500  0.35460500  1
  C  1672  1  0.78113800  0.95377600  0.37600800  1
  C  1673  1  0.73728200  0.98016700  0.38295300  1
  C  1674  1  0.70393900  0.99769800  0.36667100  1
  C  1675  1  0.71572500  0.99161500  0.34523400  1
  C  1676  1  0.72082900  0.98308100  0.40632900  1
  C  1677  1  0.68264000  0.94466400  0.40821400  1
  C  1678  1  0.62526300  0.94395200  0.40032700  1
  C  1679  1  0.59009200  0.90894900  0.40042400  1
  C  1680  1  0.61062300  0.87148400  0.40769800  1
  C  1681  1  0.66865100  0.87098200  0.41455300  1
  C  1682  1  0.70360700  0.90637900  0.41452200  1
  C  1683  1  0.77292700  0.98490300  0.42139400  1
  C  1684  1  0.68890600  0.02221700  0.41184100  1
  C  1685  1  0.64213900  0.02311200  0.42618000  1
  C  1686  1  0.60831300  0.05774300  0.42902200  1
  C  1687  1  0.62065100  0.09438800  0.41840300  1
  C  1688  1  0.67113600  0.09520800  0.40595800  1
  C  1689  1  0.70487700  0.06037300  0.40320800  1
  C  1690  1  0.82644900  0.00312000  0.41566100  1
  C  1691  1  0.87427600  0.00498400  0.42934100  1
  C  1692  1  0.87174000  0.98989800  0.45010500  1
  C  1693  1  0.81744600  0.97412800  0.45651100  1
  C  1694  1  0.76951700  0.97246200  0.44270700  1
  C  1711  1  0.58254800  0.12695000  0.42008800  1
  C  1712  1  0.77031800  0.95713500  0.31760700  1
  C  1715  1  0.57340500  0.83757400  0.40771500  1
  C  1717  1  0.92170100  0.99141300  0.46287900  1
  C  1719  1  0.76121600  0.49829000  0.68059700  1
  C  1720  1  0.79251000  0.51902600  0.66481700  1
  C  1721  1  0.78040700  0.51295200  0.64337800  1
  C  1722  1  0.73721400  0.48531900  0.63627600  1
  C  1723  1  0.70476500  0.46599900  0.65245300  1
  C  1724  1  0.71682400  0.47166600  0.67391400  1
  C  1725  1  0.72096100  0.48250800  0.61286500  1
  C  1726  1  0.68337100  0.52048300  0.61098000  1
  C  1727  1  0.62668300  0.52071800  0.61949800  1
  C  1728  1  0.59175200  0.55513200  0.61931000  1
  C  1729  1  0.61185300  0.59253700  0.61126900  1
  C  1730  1  0.66926700  0.59358300  0.60373200  1
  C  1731  1  0.70398100  0.55872900  0.60382800  1
  C  1732  1  0.77334700  0.48113600  0.59793900  1
  C  1733  1  0.68839600  0.44305500  0.60723600  1
  C  1734  1  0.64032000  0.44175800  0.59346800  1
  C  1735  1  0.60642000  0.40650600  0.59059300  1
  C  1736  1  0.61987200  0.36970100  0.60061600  1
  C  1737  1  0.67139700  0.36946000  0.61247700  1
  C  1738  1  0.70525100  0.40489900  0.61523500  1
  C  1739  1  0.82682700  0.46426500  0.60396100  1
  C  1740  1  0.87447300  0.46204600  0.59025800  1
  C  1741  1  0.87186000  0.47543600  0.56919900  1
  C  1742  1  0.81771200  0.49004100  0.56257800  1
  C  1743  1  0.76993500  0.49205600  0.57641200  1
  C  1760  1  0.58189700  0.33634000  0.59893900  1
  C  1761  1  0.77122700  0.50672800  0.70177700  1
  C  1764  1  0.57460500  0.62571400  0.61109300  1
  C  1766  1  0.92161700  0.47339700  0.55638000  1
  C  1768  1  0.27781500  0.48568700  0.33904700  1
  C  1769  1  0.23542500  0.49179100  0.35462800  1
  C  1770  1  0.24905100  0.49084700  0.37617100  1
  C  1771  1  0.30533700  0.48229400  0.38354900  1
  C  1772  1  0.34798900  0.47867500  0.36760000  1
  C  1773  1  0.33482500  0.47984500  0.34605400  1
  C  1774  1  0.32209600  0.47863900  0.40688300  1
  C  1775  1  0.36064900  0.51678600  0.40951900  1
  C  1776  1  0.42191900  0.51596500  0.40974100  1
  C  1777  1  0.45648500  0.55127400  0.41030600  1
  C  1778  1  0.43230700  0.59024200  0.41016700  1
  C  1779  1  0.37141300  0.59180700  0.40924200  1
  C  1780  1  0.33699400  0.55620200  0.40866500  1
  C  1781  1  0.27072700  0.47665400  0.42239500  1
  C  1782  1  0.35346900  0.43858300  0.41122100  1
  C  1783  1  0.38505900  0.43286500  0.43003000  1
  C  1784  1  0.41908500  0.39847500  0.43350100  1
  C  1785  1  0.42115300  0.36642900  0.41885500  1
  C  1786  1  0.38508300  0.36972300  0.40112600  1
  C  1787  1  0.35176500  0.40443100  0.39765500  1
  C  1788  1  0.22608500  0.44717500  0.41989200  1
  C  1789  1  0.17791300  0.44438800  0.43339600  1
  C  1790  1  0.17167300  0.47000700  0.45099900  1
  C  1791  1  0.21751300  0.49785200  0.45450900  1
  C  1792  1  0.26552700  0.50066600  0.44080200  1
  C  1809  1  0.45952300  0.33441300  0.42168100  1
  C  1810  1  0.26254700  0.48352400  0.31783800  1
  C  1813  1  0.46898300  0.62448000  0.41039200  1
  C  1815  1  0.12116300  0.46751900  0.46340100  1
  C  1817  1  0.58477400  0.97957200  0.02372300  1
  C  1818  1  0.56348700  0.01687900  0.01590300  1
  C  1819  1  0.51235300  0.01730700  0.00323900  1
  C  1820  1  0.48893900  0.98044900  0.99507900  1
  C  1821  1  0.51300100  0.94307200  0.00160900  1
  C  1822  1  0.55856200  0.94262400  0.01686300  1
  C  1837  1  0.48882900  0.48234500  0.02391200  1
  C  1838  1  0.51047300  0.44504800  0.01621900  1
  C  1839  1  0.56163800  0.44470800  0.00357200  1
  C  1840  1  0.58470700  0.48157300  0.99529700  1
  C  1841  1  0.56037900  0.51891800  0.00174100  1
  C  1842  1  0.51477100  0.51932800  0.01697400  1
  C  1857  1  0.06808100  0.97974700  0.52392100  1
  C  1858  1  0.04754900  0.01703200  0.51579500  1
  C  1859  1  0.99644100  0.01759000  0.50311900  1
  C  1860  1  0.97221300  0.98071200  0.49530700  1
  C  1861  1  0.99553900  0.94328800  0.50211000  1
  C  1862  1  0.04115700  0.94284700  0.51734200  1
  C  1877  1  0.97209800  0.48182300  0.52373000  1
  C  1878  1  0.99460900  0.44452700  0.51640100  1
  C  1879  1  0.04571400  0.44433400  0.50371700  1
  C  1880  1  0.06795900  0.48117200  0.49511400  1
  C  1881  1  0.04287500  0.51845300  0.50127600  1
  C  1882  1  0.99723500  0.51885400  0.51649800  1
  C  1897  1  0.00222696  0.19472100  0.10591800  1
  C  1898  1  0.01721096  0.21379600  0.08661200  1
  C  1899  1  0.05738900  0.24700600  0.08654800  1
  C  1900  1  0.07211100  0.26648500  0.10577100  1
  C  1901  1  0.05296100  0.24951500  0.12513300  1
  C  1902  1  0.02133900  0.21200500  0.12521200  1
  C  1917  1  0.07234100  0.19635600  0.91327800  1
  C  1918  1  0.05706500  0.21537600  0.93249200  1
  C  1919  1  0.01682896  0.24776000  0.93238500  1
  C  1920  1  0.00224296  0.26673600  0.91308600  1
  C  1921  1  0.02182200  0.24996800  0.89381900  1
  C  1922  1  0.05356400  0.21313000  0.89390600  1
  C  1937  1  0.07052100  0.76710100  0.90952700  1
  C  1938  1  0.05359300  0.74898000  0.92888300  1
  C  1939  1  0.01787996  0.71327700  0.92878700  1
  C  1940  1  0.00200496  0.69503200  0.90934800  1
  C  1941  1  0.01861496  0.71333100  0.89000800  1
  C  1942  1  0.05501700  0.74866000  0.89010500  1
  C  1957  1  0.00223696  0.76645600  0.10958000  1
  C  1958  1  0.01925896  0.74894500  0.09016600  1
  C  1959  1  0.05529100  0.71410400  0.09012000  1
  C  1960  1  0.07131700  0.69590100  0.10947500  1
  C  1961  1  0.05463900  0.71360100  0.12887800  1
  C  1962  1  0.01809696  0.74814700  0.12892300  1
  C  1977  1  0.48832100  0.19506200  0.60540100  1
  C  1978  1  0.50171300  0.21489100  0.58614500  1
  C  1979  1  0.54177500  0.24817300  0.58600300  1
  C  1980  1  0.55818100  0.26682300  0.60526700  1
  C  1981  1  0.54030800  0.24928000  0.62464300  1
  C  1982  1  0.50863900  0.21178700  0.62467300  1
  C  1997  1  0.55828100  0.19599400  0.41371000  1
  C  1998  1  0.54153700  0.21419100  0.43297100  1
  C  1999  1  0.50140700  0.24664100  0.43282800  1
  C  2000  1  0.48826100  0.26639500  0.41359700  1
  C  2001  1  0.50888500  0.25019700  0.39433800  1
  C  2002  1  0.54062400  0.21335900  0.39434600  1
  C  2017  1  0.55509400  0.76705900  0.40991200  1
  C  2018  1  0.53745100  0.74937700  0.42929000  1
  C  2019  1  0.50148900  0.71379800  0.42924000  1
  C  2020  1  0.48614900  0.69520400  0.40983500  1
  C  2021  1  0.50339500  0.71308500  0.39046600  1
  C  2022  1  0.54001600  0.74830000  0.39052100  1
  C  2037  1  0.48639700  0.76622500  0.60903700  1
  C  2038  1  0.50299500  0.74841900  0.58964500  1
  C  2039  1  0.53924300  0.71369400  0.58964000  1
  C  2040  1  0.55589700  0.69588900  0.60902100  1
  C  2041  1  0.53959800  0.71388300  0.62840100  1
  C  2042  1  0.50278900  0.74828200  0.62840700  1
  C  2057  1  0.78837800  0.97769600  0.23743100  1
  C  2058  1  0.73648100  0.99294500  0.24617300  1
  C  2059  1  0.72712600  0.99035900  0.26830200  1
  C  2060  1  0.77349200  0.97965500  0.28177600  1
  C  2061  1  0.82796200  0.96931300  0.27305500  1
  C  2062  1  0.83352500  0.96465900  0.25085600  1
  C  2077  1  0.27376300  0.97614300  0.78183700  1
  C  2078  1  0.31645100  0.00057200  0.77167500  1
  C  2079  1  0.32180900  0.99905800  0.74932600  1
  C  2080  1  0.28835200  0.97039500  0.73767500  1
  C  2081  1  0.24888500  0.94387000  0.74814700  1
  C  2082  1  0.23799300  0.94926100  0.77001800  1
  C  2097  1  0.27310300  0.48784000  0.23741500  1
  C  2098  1  0.31394100  0.46227500  0.24728000  1
  C  2099  1  0.32282500  0.46507300  0.26945100  1
  C  2100  1  0.28838100  0.49164900  0.28161200  1
  C  2101  1  0.24857700  0.51783800  0.27162000  1
  C  2102  1  0.23852500  0.51423700  0.24957500  1
  C  2117  1  0.78891000  0.48313800  0.78172000  1
  C  2118  1  0.73642000  0.46815000  0.77282900  1
  C  2119  1  0.72715500  0.47160300  0.75073600  1
  C  2120  1  0.77392000  0.48292700  0.73737400  1
  C  2121  1  0.82879800  0.49300000  0.74618600  1
  C  2122  1  0.83456500  0.49674900  0.76843000  1
  H  26  1  0.44919800  0.06010100  0.07486800  1
  H  27  1  0.39136200  0.00134400  0.08028300  1
  H  28  1  0.37523100  0.11383100  0.12801700  1
  H  29  1  0.31739600  0.05530600  0.13326900  1
  H  30  1  0.22177000  0.02546200  0.11406300  1
  H  31  1  0.14182900  0.02982200  0.09126800  1
  H  32  1  0.21799100  0.94614000  0.05065900  1
  H  33  1  0.29865800  0.94224100  0.07349800  1
  H  34  1  0.29088400  0.89818600  0.10860200  1
  H  35  1  0.34945600  0.83978600  0.10772600  1
  H  36  1  0.49725900  0.91362800  0.11487900  1
  H  37  1  0.43926900  0.97101600  0.11600500  1
  H  38  1  0.38249800  0.99325600  0.14900700  1
  H  39  1  0.21762700  0.95005200  0.13199100  1
  H  40  1  0.19305700  0.94345300  0.16779100  1
  H  41  1  0.35827500  0.98621300  0.18483900  1
  H  44  1  0.08544300  0.00240600  0.06245800  1
  H  45  1  0.49434500  0.12104500  0.09068700  1
  H  47  1  0.50931200  0.84242200  0.11143100  1
  H  49  1  0.22526100  0.94065000  0.20474500  1
  H  75  1  0.58775600  0.06155500  0.94418200  1
  H  76  1  0.64467300  0.00349400  0.93895300  1
  H  77  1  0.66801700  0.11777600  0.89252800  1
  H  78  1  0.72489100  0.05981500  0.88743000  1
  H  79  1  0.82017500  0.02727700  0.90458900  1
  H  80  1  0.90102900  0.03086000  0.92711300  1
  H  81  1  0.81810100  0.95157700  0.96919500  1
  H  82  1  0.73674800  0.94838000  0.94659600  1
  H  83  1  0.74680100  0.90261900  0.91152300  1
  H  84  1  0.68819400  0.84316100  0.91223800  1
  H  85  1  0.54073900  0.91403200  0.90409000  1
  H  86  1  0.59892300  0.97261100  0.90317500  1
  H  87  1  0.65466500  0.99897100  0.87114100  1
  H  88  1  0.81663300  0.95219900  0.88686200  1
  H  89  1  0.83798300  0.94438400  0.85086500  1
  H  90  1  0.67562100  0.99083400  0.83516200  1
  H  93  1  0.95494700  0.00512300  0.95659400  1
  H  94  1  0.54595800  0.12279700  0.92885300  1
  H  96  1  0.52865100  0.84246800  0.90785300  1
  H  98  1  0.80311500  0.94169600  0.81434600  1
  H  124  1  0.58848300  0.40163600  0.07466900  1
  H  125  1  0.64562700  0.46072500  0.08003000  1
  H  126  1  0.66630700  0.34732100  0.12691700  1
  H  127  1  0.72333300  0.40623500  0.13214400  1
  H  128  1  0.81828400  0.43824200  0.11461000  1
  H  129  1  0.89877100  0.43408000  0.09205900  1
  H  130  1  0.82020900  0.51406800  0.05006400  1
  H  131  1  0.73910100  0.51785600  0.07271200  1
  H  132  1  0.74779700  0.56354300  0.10773800  1
  H  133  1  0.68959700  0.62211000  0.10686900  1
  H  134  1  0.54147100  0.54878000  0.11452600  1
  H  135  1  0.59914100  0.49119600  0.11560300  1
  H  136  1  0.65404500  0.46703100  0.14800800  1
  H  137  1  0.81839300  0.51316100  0.13239400  1
  H  138  1  0.84068000  0.51957800  0.16840300  1
  H  139  1  0.67585100  0.47392200  0.18400300  1
  H  142  1  0.95430100  0.46010900  0.06275200  1
  H  143  1  0.54573900  0.33973300  0.09004500  1
  H  145  1  0.52978700  0.61998100  0.11060000  1
  H  147  1  0.80952100  0.51842900  0.20505600  1
  H  173  1  0.44896300  0.40064100  0.94425300  1
  H  174  1  0.39138600  0.45834200  0.93887900  1
  H  175  1  0.37446000  0.34553900  0.89118300  1
  H  176  1  0.31679400  0.40303200  0.88597800  1
  H  177  1  0.22054100  0.43224600  0.90545900  1
  H  178  1  0.14025600  0.42828700  0.92824000  1
  H  179  1  0.21951400  0.51291600  0.96841800  1
  H  180  1  0.30038500  0.51639000  0.94563200  1
  H  181  1  0.29133100  0.55976400  0.91021600  1
  H  182  1  0.35005100  0.61919000  0.91103000  1
  H  183  1  0.49772100  0.54800200  0.90430600  1
  H  184  1  0.43948700  0.48949800  0.90323600  1
  H  185  1  0.38212800  0.46598700  0.87013700  1
  H  186  1  0.21813300  0.50730100  0.88729700  1
  H  187  1  0.19388900  0.51448800  0.85153800  1
  H  188  1  0.35822500  0.47359300  0.83433000  1
  H  191  1  0.08494400  0.45592600  0.95698700  1
  H  192  1  0.49354700  0.34041500  0.92865100  1
  H  194  1  0.50980300  0.61961900  0.90767600  1
  H  196  1  0.22654100  0.51877000  0.81467500  1
  H  222  1  0.92712100  0.06305400  0.57237000  1
  H  223  1  0.86980700  0.00414600  0.57823300  1
  H  224  1  0.86785900  0.11220800  0.62906300  1
  H  225  1  0.81034100  0.05392500  0.63469000  1
  H  226  1  0.71184100  0.03001800  0.61206100  1
  H  227  1  0.63146100  0.03484100  0.58948500  1
  H  228  1  0.69766700  0.94222300  0.55191400  1
  H  229  1  0.77874300  0.93788900  0.57441000  1
  H  230  1  0.77590700  0.89853300  0.61125900  1
  H  231  1  0.83381700  0.83980700  0.60999400  1
  H  232  1  0.98295700  0.91360200  0.60911200  1
  H  233  1  0.92588300  0.97122100  0.61086400  1
  H  234  1  0.87287100  0.98609900  0.64756600  1
  H  235  1  0.69940700  0.96042600  0.63267300  1
  H  236  1  0.67623100  0.95999900  0.66871700  1
  H  237  1  0.85005400  0.98437500  0.68368200  1
  H  240  1  0.57069100  0.00470700  0.56230600  1
  H  241  1  0.97773700  0.12213600  0.58857700  1
  H  243  1  0.99393600  0.84210400  0.60823600  1
  H  245  1  0.70419300  0.98086000  0.70476600  1
  H  271  1  0.05625200  0.05548400  0.43867300  1
  H  272  1  0.11320400  0.99758000  0.43410200  1
  H  273  1  0.16596100  0.12098400  0.39816000  1
  H  274  1  0.22292000  0.06258600  0.39354400  1
  H  275  1  0.31462300  0.01526800  0.40107800  1
  H  276  1  0.39476100  0.01775300  0.42380700  1
  H  277  1  0.29531300  0.96353900  0.47143600  1
  H  278  1  0.21450900  0.96111100  0.44839200  1
  H  279  1  0.22867700  0.90361600  0.41896600  1
  H  280  1  0.16933100  0.84457700  0.41955900  1
  H  281  1  0.03201900  0.91114500  0.39477200  1
  H  282  1  0.09093500  0.96960100  0.39431300  1
  H  283  1  0.15173900  0.01442400  0.37022300  1
  H  284  1  0.28768000  0.93804900  0.38670400  1
  H  285  1  0.30790200  0.92760000  0.35071900  1
  H  286  1  0.17243400  0.00460700  0.33438600  1
  H  289  1  0.44103500  0.00155200  0.45628200  1
  H  290  1  0.02735100  0.12161500  0.42666900  1
  H  292  1  0.01457700  0.84230900  0.40553600  1
  H  294  1  0.26538800  0.92929800  0.31399200  1
  H  320  1  0.05355500  0.40837600  0.58135800  1
  H  321  1  0.11067200  0.46730200  0.58593600  1
  H  322  1  0.16702700  0.34362100  0.61981900  1
  H  323  1  0.22407200  0.40307400  0.62449800  1
  H  324  1  0.31501200  0.45307700  0.61872100  1
  H  325  1  0.39482300  0.45014500  0.59598100  1
  H  326  1  0.29552800  0.49937500  0.54745200  1
  H  327  1  0.21494600  0.50234600  0.57056000  1
  H  328  1  0.22862800  0.56190800  0.59882600  1
  H  329  1  0.16959100  0.61998400  0.59809700  1
  H  330  1  0.03413300  0.55253800  0.62543000  1
  H  331  1  0.09261700  0.49506000  0.62598900  1
  H  332  1  0.15297900  0.44821200  0.64883200  1
  H  333  1  0.28638700  0.52976000  0.63276900  1
  H  334  1  0.30707400  0.53953700  0.66882100  1
  H  335  1  0.17415900  0.45733800  0.68468300  1
  H  338  1  0.44083900  0.46416600  0.56313200  1
  H  339  1  0.02653800  0.34083400  0.59246600  1
  H  341  1  0.01574000  0.62004700  0.61311700  1
  H  343  1  0.26696300  0.53453100  0.70567000  1
  H  369  1  0.92661300  0.39748600  0.44681400  1
  H  370  1  0.86953700  0.45536000  0.44097400  1
  H  371  1  0.86708700  0.34728500  0.39013300  1
  H  372  1  0.80975100  0.40452800  0.38453900  1
  H  373  1  0.71056300  0.42766800  0.40751800  1
  H  374  1  0.62985500  0.42312300  0.43009400  1
  H  375  1  0.69914100  0.51684000  0.46711000  1
  H  376  1  0.78039900  0.52086600  0.44466900  1
  H  377  1  0.77641700  0.55930800  0.40740400  1
  H  378  1  0.83445100  0.61907000  0.40864300  1
  H  379  1  0.98336700  0.54805300  0.41034700  1
  H  380  1  0.92609100  0.48929900  0.40862000  1
  H  381  1  0.87285300  0.47332200  0.37164800  1
  H  382  1  0.69957700  0.49634400  0.38646500  1
  H  383  1  0.67664900  0.49683900  0.35039600  1
  H  384  1  0.85029500  0.47514300  0.33551800  1
  H  387  1  0.57015900  0.45339000  0.45719500  1
  H  388  1  0.97673700  0.33923300  0.43080700  1
  H  390  1  0.99434900  0.61992600  0.41109000  1
  H  392  1  0.70480900  0.47683500  0.31429000  1
  H  400  1  0.97694900  0.07718900  0.00674000  1
  H  401  1  0.93084700  0.05286300  0.99198400  1
  H  403  1  0.11297200  0.05164800  0.02761300  1
  H  404  1  0.06832300  0.07681800  0.01309100  1
  H  406  1  0.94581500  0.90812700  0.98199500  1
  H  407  1  0.99450300  0.88258700  0.99444300  1
  H  409  1  0.08969500  0.90668800  0.03620100  1
  H  410  1  0.03944800  0.88198700  0.02354900  1
  H  420  1  0.06373000  0.38497000  0.00729700  1
  H  421  1  0.10970700  0.40933800  0.99251100  1
  H  423  1  0.92736100  0.41019500  0.02797500  1
  H  424  1  0.97225300  0.38500100  0.01354800  1
  H  426  1  0.09355800  0.55388600  0.98209200  1
  H  427  1  0.04469200  0.57936700  0.99447400  1
  H  429  1  0.94923100  0.55528500  0.03615300  1
  H  430  1  0.99918300  0.58010900  0.02344000  1
  H  440  1  0.46241100  0.07782800  0.50593500  1
  H  441  1  0.41601900  0.05346000  0.49130000  1
  H  443  1  0.59787900  0.05148200  0.52711200  1
  H  444  1  0.55362900  0.07665500  0.51244300  1
  H  446  1  0.42748700  0.90830200  0.48281200  1
  H  447  1  0.47574300  0.88261700  0.49540500  1
  H  449  1  0.57168100  0.90697800  0.53691600  1
  H  450  1  0.52097500  0.88239500  0.52444800  1
  H  460  1  0.54915700  0.38495800  0.50798100  1
  H  461  1  0.59465500  0.40934700  0.49302400  1
  H  463  1  0.41274400  0.40935900  0.52882500  1
  H  464  1  0.45787900  0.38412900  0.51449800  1
  H  466  1  0.57537100  0.55336400  0.48137600  1
  H  467  1  0.52602500  0.57870300  0.49357800  1
  H  469  1  0.43077900  0.55483000  0.53534700  1
  H  470  1  0.48025100  0.57981600  0.52247400  1
  H  480  1  0.56340300  0.24371900  0.05567400  1
  H  481  1  0.59714700  0.27951100  0.06844400  1
  H  483  1  0.44400500  0.18073400  0.06849900  1
  H  484  1  0.47790300  0.21624800  0.05562000  1
  H  486  1  0.56743300  0.29589800  0.14346100  1
  H  487  1  0.52939500  0.26268800  0.15647900  1
  H  489  1  0.47314500  0.16585100  0.14369700  1
  H  490  1  0.51120700  0.19928400  0.15657300  1
  H  500  1  0.47657700  0.24429200  0.96323300  1
  H  501  1  0.44291100  0.27924500  0.95031900  1
  H  503  1  0.59636500  0.18384900  0.95073100  1
  H  504  1  0.56222100  0.21874200  0.96349600  1
  H  506  1  0.47364100  0.29550600  0.87531000  1
  H  507  1  0.51193700  0.26299000  0.86245300  1
  H  509  1  0.56865100  0.16760600  0.87556900  1
  H  510  1  0.53085300  0.20010700  0.86250600  1
  H  520  1  0.48473700  0.70910700  0.96043000  1
  H  521  1  0.45505300  0.67279000  0.94690400  1
  H  523  1  0.58148900  0.78962600  0.94725900  1
  H  524  1  0.55101300  0.75343700  0.96063800  1
  H  526  1  0.45484700  0.67390900  0.87158600  1
  H  527  1  0.48517700  0.71043100  0.85838200  1
  H  529  1  0.58600500  0.78790200  0.87197400  1
  H  530  1  0.55649300  0.75122200  0.85863100  1
  H  540  1  0.55479900  0.71095800  0.05848000  1
  H  541  1  0.58467100  0.67508200  0.07184000  1
  H  543  1  0.45697300  0.78863500  0.07194300  1
  H  544  1  0.48753300  0.75325100  0.05844600  1
  H  546  1  0.58461600  0.67488900  0.14713500  1
  H  547  1  0.55412100  0.71049600  0.16050100  1
  H  549  1  0.45346500  0.78628400  0.14724300  1
  H  550  1  0.48337300  0.75024300  0.16047300  1
  H  560  1  0.04485100  0.24658400  0.55481300  1
  H  561  1  0.07909900  0.28214300  0.56760600  1
  H  563  1  0.92679000  0.18270600  0.56833200  1
  H  564  1  0.95979900  0.21859100  0.55545100  1
  H  566  1  0.05616700  0.29509900  0.64302800  1
  H  567  1  0.01894600  0.26156600  0.65613600  1
  H  569  1  0.96149500  0.16516000  0.64307000  1
  H  570  1  0.00035400  0.19822800  0.65588200  1
  H  580  1  0.95880900  0.24186400  0.46338700  1
  H  581  1  0.92590100  0.27718800  0.45050600  1
  H  583  1  0.07868900  0.18126100  0.45142900  1
  H  584  1  0.04410500  0.21590700  0.46424100  1
  H  586  1  0.96170300  0.29625700  0.37594600  1
  H  587  1  0.00067900  0.26410000  0.36312300  1
  H  589  1  0.05682400  0.16838400  0.37592200  1
  H  590  1  0.01977100  0.20125600  0.36281600  1
  H  600  1  0.96703900  0.71047600  0.46081000  1
  H  601  1  0.93733100  0.67407800  0.44735400  1
  H  603  1  0.06482000  0.79034700  0.44764300  1
  H  604  1  0.03391700  0.75439400  0.46107800  1
  H  606  1  0.94024900  0.67325500  0.37206800  1
  H  607  1  0.97091400  0.70955700  0.35879200  1
  H  609  1  0.07219900  0.78677800  0.37237700  1
  H  610  1  0.04256000  0.75005200  0.35912100  1
  H  620  1  0.03787500  0.71001000  0.55795800  1
  H  621  1  0.06810600  0.67434700  0.57137100  1
  H  623  1  0.93954900  0.78741500  0.57141700  1
  H  624  1  0.97020500  0.75200700  0.55797300  1
  H  626  1  0.07087200  0.67602900  0.64668900  1
  H  627  1  0.04018800  0.71166000  0.65996100  1
  H  629  1  0.93856700  0.78670400  0.64671400  1
  H  630  1  0.96874900  0.75083200  0.65999500  1
  H  640  1  0.12298100  0.99968500  0.26817100  1
  H  641  1  0.14970600  0.99463100  0.29163500  1
  H  643  1  0.18805700  0.01556100  0.21860200  1
  H  644  1  0.14874900  0.02656500  0.23886400  1
  H  646  1  0.35589600  0.97236700  0.30068700  1
  H  647  1  0.39662600  0.96417600  0.28045000  1
  H  649  1  0.36776100  0.94299800  0.22729200  1
  H  650  1  0.39222400  0.93348100  0.25071200  1
  H  660  1  0.85934300  0.04802600  0.74538100  1
  H  661  1  0.84351700  0.02502700  0.72356700  1
  H  663  1  0.83129900  0.02592300  0.79877100  1
  H  664  1  0.86829500  0.03848700  0.77806700  1
  H  666  1  0.71693900  0.90703200  0.72285100  1
  H  667  1  0.68551500  0.89125700  0.74416500  1
  H  669  1  0.66783300  0.93356600  0.79451500  1
  H  670  1  0.64686100  0.91497300  0.77208500  1
  H  680  1  0.87648900  0.42839800  0.27181100  1
  H  681  1  0.85467900  0.44556700  0.29426800  1
  H  683  1  0.81776500  0.43152600  0.22040900  1
  H  684  1  0.84860100  0.41360000  0.24120400  1
  H  686  1  0.71563700  0.55197400  0.29775800  1
  H  687  1  0.68458300  0.56893500  0.27678900  1
  H  689  1  0.67037300  0.53200900  0.22507500  1
  H  690  1  0.64904100  0.54886500  0.24771200  1
  H  700  1  0.12265000  0.46214800  0.75078600  1
  H  701  1  0.14954200  0.46819800  0.72737500  1
  H  703  1  0.18738200  0.44421900  0.80011500  1
  H  704  1  0.14750100  0.43402600  0.77976400  1
  H  706  1  0.35649500  0.49129900  0.71849200  1
  H  707  1  0.39762300  0.49866400  0.73879200  1
  H  709  1  0.36991500  0.51727700  0.79223200  1
  H  710  1  0.39483500  0.52771800  0.76894500  1
  H  1450  1  0.96614200  0.06010100  0.07486800  1
  H  1451  1  0.90830600  0.00134400  0.08028300  1
  H  1452  1  0.89217500  0.11383100  0.12801700  1
  H  1453  1  0.83434000  0.05530600  0.13326900  1
  H  1454  1  0.73871400  0.02546200  0.11406300  1
  H  1455  1  0.65877300  0.02982200  0.09126800  1
  H  1456  1  0.73493500  0.94614000  0.05065900  1
  H  1457  1  0.81560200  0.94224100  0.07349800  1
  H  1458  1  0.80782800  0.89818600  0.10860200  1
  H  1459  1  0.86640000  0.83978600  0.10772600  1
  H  1460  1  0.01420296  0.91362800  0.11487900  1
  H  1461  1  0.95621300  0.97101600  0.11600500  1
  H  1462  1  0.89944200  0.99325600  0.14900700  1
  H  1463  1  0.73457100  0.95005200  0.13199100  1
  H  1464  1  0.71000100  0.94345300  0.16779100  1
  H  1465  1  0.87521900  0.98621300  0.18483900  1
  H  1468  1  0.60238700  0.00240600  0.06245800  1
  H  1469  1  0.01128896  0.12104500  0.09068700  1
  H  1471  1  0.02625600  0.84242200  0.11143100  1
  H  1473  1  0.74220500  0.94065000  0.20474500  1
  H  1499  1  0.10470000  0.06155500  0.94418200  1
  H  1500  1  0.16161700  0.00349400  0.93895300  1
  H  1501  1  0.18496100  0.11777600  0.89252800  1
  H  1502  1  0.24183500  0.05981500  0.88743000  1
  H  1503  1  0.33711900  0.02727700  0.90458900  1
  H  1504  1  0.41797300  0.03086000  0.92711300  1
  H  1505  1  0.33504500  0.95157700  0.96919500  1
  H  1506  1  0.25369200  0.94838000  0.94659600  1
  H  1507  1  0.26374500  0.90261900  0.91152300  1
  H  1508  1  0.20513800  0.84316100  0.91223800  1
  H  1509  1  0.05768300  0.91403200  0.90409000  1
  H  1510  1  0.11586700  0.97261100  0.90317500  1
  H  1511  1  0.17160900  0.99897100  0.87114100  1
  H  1512  1  0.33357700  0.95219900  0.88686200  1
  H  1513  1  0.35492700  0.94438400  0.85086500  1
  H  1514  1  0.19256500  0.99083400  0.83516200  1
  H  1517  1  0.47189100  0.00512300  0.95659400  1
  H  1518  1  0.06290200  0.12279700  0.92885300  1
  H  1520  1  0.04559500  0.84246800  0.90785300  1
  H  1522  1  0.32005900  0.94169600  0.81434600  1
  H  1548  1  0.10542700  0.40163600  0.07466900  1
  H  1549  1  0.16257100  0.46072500  0.08003000  1
  H  1550  1  0.18325100  0.34732100  0.12691700  1
  H  1551  1  0.24027700  0.40623500  0.13214400  1
  H  1552  1  0.33522800  0.43824200  0.11461000  1
  H  1553  1  0.41571500  0.43408000  0.09205900  1
  H  1554  1  0.33715300  0.51406800  0.05006400  1
  H  1555  1  0.25604500  0.51785600  0.07271200  1
  H  1556  1  0.26474100  0.56354300  0.10773800  1
  H  1557  1  0.20654100  0.62211000  0.10686900  1
  H  1558  1  0.05841500  0.54878000  0.11452600  1
  H  1559  1  0.11608500  0.49119600  0.11560300  1
  H  1560  1  0.17098900  0.46703100  0.14800800  1
  H  1561  1  0.33533700  0.51316100  0.13239400  1
  H  1562  1  0.35762400  0.51957800  0.16840300  1
  H  1563  1  0.19279500  0.47392200  0.18400300  1
  H  1566  1  0.47124500  0.46010900  0.06275200  1
  H  1567  1  0.06268300  0.33973300  0.09004500  1
  H  1569  1  0.04673100  0.61998100  0.11060000  1
  H  1571  1  0.32646500  0.51842900  0.20505600  1
  H  1597  1  0.96590700  0.40064100  0.94425300  1
  H  1598  1  0.90833000  0.45834200  0.93887900  1
  H  1599  1  0.89140400  0.34553900  0.89118300  1
  H  1600  1  0.83373800  0.40303200  0.88597800  1
  H  1601  1  0.73748500  0.43224600  0.90545900  1
  H  1602  1  0.65720000  0.42828700  0.92824000  1
  H  1603  1  0.73645800  0.51291600  0.96841800  1
  H  1604  1  0.81732900  0.51639000  0.94563200  1
  H  1605  1  0.80827500  0.55976400  0.91021600  1
  H  1606  1  0.86699500  0.61919000  0.91103000  1
  H  1607  1  0.01466496  0.54800200  0.90430600  1
  H  1608  1  0.95643100  0.48949800  0.90323600  1
  H  1609  1  0.89907200  0.46598700  0.87013700  1
  H  1610  1  0.73507700  0.50730100  0.88729700  1
  H  1611  1  0.71083300  0.51448800  0.85153800  1
  H  1612  1  0.87516900  0.47359300  0.83433000  1
  H  1615  1  0.60188800  0.45592600  0.95698700  1
  H  1616  1  0.01049096  0.34041500  0.92865100  1
  H  1618  1  0.02674700  0.61961900  0.90767600  1
  H  1620  1  0.74348500  0.51877000  0.81467500  1
  H  1646  1  0.44406500  0.06305400  0.57237000  1
  H  1647  1  0.38675100  0.00414600  0.57823300  1
  H  1648  1  0.38480300  0.11220800  0.62906300  1
  H  1649  1  0.32728500  0.05392500  0.63469000  1
  H  1650  1  0.22878500  0.03001800  0.61206100  1
  H  1651  1  0.14840500  0.03484100  0.58948500  1
  H  1652  1  0.21461100  0.94222300  0.55191400  1
  H  1653  1  0.29568700  0.93788900  0.57441000  1
  H  1654  1  0.29285100  0.89853300  0.61125900  1
  H  1655  1  0.35076100  0.83980700  0.60999400  1
  H  1656  1  0.49990100  0.91360200  0.60911200  1
  H  1657  1  0.44282700  0.97122100  0.61086400  1
  H  1658  1  0.38981500  0.98609900  0.64756600  1
  H  1659  1  0.21635100  0.96042600  0.63267300  1
  H  1660  1  0.19317500  0.95999900  0.66871700  1
  H  1661  1  0.36699800  0.98437500  0.68368200  1
  H  1664  1  0.08763500  0.00470700  0.56230600  1
  H  1665  1  0.49468100  0.12213600  0.58857700  1
  H  1667  1  0.51088000  0.84210400  0.60823600  1
  H  1669  1  0.22113700  0.98086000  0.70476600  1
  H  1695  1  0.57319600  0.05548400  0.43867300  1
  H  1696  1  0.63014800  0.99758000  0.43410200  1
  H  1697  1  0.68290500  0.12098400  0.39816000  1
  H  1698  1  0.73986400  0.06258600  0.39354400  1
  H  1699  1  0.83156700  0.01526800  0.40107800  1
  H  1700  1  0.91170500  0.01775300  0.42380700  1
  H  1701  1  0.81225700  0.96353900  0.47143600  1
  H  1702  1  0.73145300  0.96111100  0.44839200  1
  H  1703  1  0.74562100  0.90361600  0.41896600  1
  H  1704  1  0.68627500  0.84457700  0.41955900  1
  H  1705  1  0.54896300  0.91114500  0.39477200  1
  H  1706  1  0.60787900  0.96960100  0.39431300  1
  H  1707  1  0.66868300  0.01442400  0.37022300  1
  H  1708  1  0.80462400  0.93804900  0.38670400  1
  H  1709  1  0.82484600  0.92760000  0.35071900  1
  H  1710  1  0.68937800  0.00460700  0.33438600  1
  H  1713  1  0.95797900  0.00155200  0.45628200  1
  H  1714  1  0.54429500  0.12161500  0.42666900  1
  H  1716  1  0.53152100  0.84230900  0.40553600  1
  H  1718  1  0.78233200  0.92929800  0.31399200  1
  H  1744  1  0.57049900  0.40837600  0.58135800  1
  H  1745  1  0.62761600  0.46730200  0.58593600  1
  H  1746  1  0.68397100  0.34362100  0.61981900  1
  H  1747  1  0.74101600  0.40307400  0.62449800  1
  H  1748  1  0.83195600  0.45307700  0.61872100  1
  H  1749  1  0.91176700  0.45014500  0.59598100  1
  H  1750  1  0.81247200  0.49937500  0.54745200  1
  H  1751  1  0.73189000  0.50234600  0.57056000  1
  H  1752  1  0.74557200  0.56190800  0.59882600  1
  H  1753  1  0.68653500  0.61998400  0.59809700  1
  H  1754  1  0.55107700  0.55253800  0.62543000  1
  H  1755  1  0.60956100  0.49506000  0.62598900  1
  H  1756  1  0.66992300  0.44821200  0.64883200  1
  H  1757  1  0.80333100  0.52976000  0.63276900  1
  H  1758  1  0.82401800  0.53953700  0.66882100  1
  H  1759  1  0.69110300  0.45733800  0.68468300  1
  H  1762  1  0.95778300  0.46416600  0.56313200  1
  H  1763  1  0.54348200  0.34083400  0.59246600  1
  H  1765  1  0.53268400  0.62004700  0.61311700  1
  H  1767  1  0.78390700  0.53453100  0.70567000  1
  H  1793  1  0.44355700  0.39748600  0.44681400  1
  H  1794  1  0.38648100  0.45536000  0.44097400  1
  H  1795  1  0.38403100  0.34728500  0.39013300  1
  H  1796  1  0.32669500  0.40452800  0.38453900  1
  H  1797  1  0.22750700  0.42766800  0.40751800  1
  H  1798  1  0.14679900  0.42312300  0.43009400  1
  H  1799  1  0.21608500  0.51684000  0.46711000  1
  H  1800  1  0.29734300  0.52086600  0.44466900  1
  H  1801  1  0.29336100  0.55930800  0.40740400  1
  H  1802  1  0.35139500  0.61907000  0.40864300  1
  H  1803  1  0.50031100  0.54805300  0.41034700  1
  H  1804  1  0.44303500  0.48929900  0.40862000  1
  H  1805  1  0.38979700  0.47332200  0.37164800  1
  H  1806  1  0.21652100  0.49634400  0.38646500  1
  H  1807  1  0.19359300  0.49683900  0.35039600  1
  H  1808  1  0.36723900  0.47514300  0.33551800  1
  H  1811  1  0.08710300  0.45339000  0.45719500  1
  H  1812  1  0.49368100  0.33923300  0.43080700  1
  H  1814  1  0.51129300  0.61992600  0.41109000  1
  H  1816  1  0.22175300  0.47683500  0.31429000  1
  H  1824  1  0.49389300  0.07718900  0.00674000  1
  H  1825  1  0.44779100  0.05286300  0.99198400  1
  H  1827  1  0.62991600  0.05164800  0.02761300  1
  H  1828  1  0.58526700  0.07681800  0.01309100  1
  H  1830  1  0.46275900  0.90812700  0.98199500  1
  H  1831  1  0.51144700  0.88258700  0.99444300  1
  H  1833  1  0.60663900  0.90668800  0.03620100  1
  H  1834  1  0.55639200  0.88198700  0.02354900  1
  H  1844  1  0.58067400  0.38497000  0.00729700  1
  H  1845  1  0.62665100  0.40933800  0.99251100  1
  H  1847  1  0.44430500  0.41019500  0.02797500  1
  H  1848  1  0.48919700  0.38500100  0.01354800  1
  H  1850  1  0.61050200  0.55388600  0.98209200  1
  H  1851  1  0.56163600  0.57936700  0.99447400  1
  H  1853  1  0.46617500  0.55528500  0.03615300  1
  H  1854  1  0.51612700  0.58010900  0.02344000  1
  H  1864  1  0.97935500  0.07782800  0.50593500  1
  H  1865  1  0.93296300  0.05346000  0.49130000  1
  H  1867  1  0.11482300  0.05148200  0.52711200  1
  H  1868  1  0.07057300  0.07665500  0.51244300  1
  H  1870  1  0.94443100  0.90830200  0.48281200  1
  H  1871  1  0.99268700  0.88261700  0.49540500  1
  H  1873  1  0.08862500  0.90697800  0.53691600  1
  H  1874  1  0.03791900  0.88239500  0.52444800  1
  H  1884  1  0.06610100  0.38495800  0.50798100  1
  H  1885  1  0.11159900  0.40934700  0.49302400  1
  H  1887  1  0.92968800  0.40935900  0.52882500  1
  H  1888  1  0.97482300  0.38412900  0.51449800  1
  H  1890  1  0.09231500  0.55336400  0.48137600  1
  H  1891  1  0.04296900  0.57870300  0.49357800  1
  H  1893  1  0.94772300  0.55483000  0.53534700  1
  H  1894  1  0.99719500  0.57981600  0.52247400  1
  H  1904  1  0.08034700  0.24371900  0.05567400  1
  H  1905  1  0.11409100  0.27951100  0.06844400  1
  H  1907  1  0.96094900  0.18073400  0.06849900  1
  H  1908  1  0.99484700  0.21624800  0.05562000  1
  H  1910  1  0.08437700  0.29589800  0.14346100  1
  H  1911  1  0.04633900  0.26268800  0.15647900  1
  H  1913  1  0.99008900  0.16585100  0.14369700  1
  H  1914  1  0.02815100  0.19928400  0.15657300  1
  H  1924  1  0.99352100  0.24429200  0.96323300  1
  H  1925  1  0.95985500  0.27924500  0.95031900  1
  H  1927  1  0.11330900  0.18384900  0.95073100  1
  H  1928  1  0.07916500  0.21874200  0.96349600  1
  H  1930  1  0.99058500  0.29550600  0.87531000  1
  H  1931  1  0.02888100  0.26299000  0.86245300  1
  H  1933  1  0.08559500  0.16760600  0.87556900  1
  H  1934  1  0.04779700  0.20010700  0.86250600  1
  H  1944  1  0.00168096  0.70910700  0.96043000  1
  H  1945  1  0.97199700  0.67279000  0.94690400  1
  H  1947  1  0.09843300  0.78962600  0.94725900  1
  H  1948  1  0.06795700  0.75343700  0.96063800  1
  H  1950  1  0.97179100  0.67390900  0.87158600  1
  H  1951  1  0.00212096  0.71043100  0.85838200  1
  H  1953  1  0.10294900  0.78790200  0.87197400  1
  H  1954  1  0.07343700  0.75122200  0.85863100  1
  H  1964  1  0.07174300  0.71095800  0.05848000  1
  H  1965  1  0.10161500  0.67508200  0.07184000  1
  H  1967  1  0.97391700  0.78863500  0.07194300  1
  H  1968  1  0.00447696  0.75325100  0.05844600  1
  H  1970  1  0.10156000  0.67488900  0.14713500  1
  H  1971  1  0.07106500  0.71049600  0.16050100  1
  H  1973  1  0.97040900  0.78628400  0.14724300  1
  H  1974  1  0.00031696  0.75024300  0.16047300  1
  H  1984  1  0.56179500  0.24658400  0.55481300  1
  H  1985  1  0.59604300  0.28214300  0.56760600  1
  H  1987  1  0.44373400  0.18270600  0.56833200  1
  H  1988  1  0.47674300  0.21859100  0.55545100  1
  H  1990  1  0.57311100  0.29509900  0.64302800  1
  H  1991  1  0.53589000  0.26156600  0.65613600  1
  H  1993  1  0.47843900  0.16516000  0.64307000  1
  H  1994  1  0.51729800  0.19822800  0.65588200  1
  H  2004  1  0.47575300  0.24186400  0.46338700  1
  H  2005  1  0.44284500  0.27718800  0.45050600  1
  H  2007  1  0.59563300  0.18126100  0.45142900  1
  H  2008  1  0.56104900  0.21590700  0.46424100  1
  H  2010  1  0.47864700  0.29625700  0.37594600  1
  H  2011  1  0.51762300  0.26410000  0.36312300  1
  H  2013  1  0.57376800  0.16838400  0.37592200  1
  H  2014  1  0.53671500  0.20125600  0.36281600  1
  H  2024  1  0.48398300  0.71047600  0.46081000  1
  H  2025  1  0.45427500  0.67407800  0.44735400  1
  H  2027  1  0.58176400  0.79034700  0.44764300  1
  H  2028  1  0.55086100  0.75439400  0.46107800  1
  H  2030  1  0.45719300  0.67325500  0.37206800  1
  H  2031  1  0.48785800  0.70955700  0.35879200  1
  H  2033  1  0.58914300  0.78677800  0.37237700  1
  H  2034  1  0.55950400  0.75005200  0.35912100  1
  H  2044  1  0.55481900  0.71001000  0.55795800  1
  H  2045  1  0.58505000  0.67434700  0.57137100  1
  H  2047  1  0.45649300  0.78741500  0.57141700  1
  H  2048  1  0.48714900  0.75200700  0.55797300  1
  H  2050  1  0.58781600  0.67602900  0.64668900  1
  H  2051  1  0.55713200  0.71166000  0.65996100  1
  H  2053  1  0.45551100  0.78670400  0.64671400  1
  H  2054  1  0.48569300  0.75083200  0.65999500  1
  H  2064  1  0.63992500  0.99968500  0.26817100  1
  H  2065  1  0.66665933  0.99463100  0.29163500  1
  H  2067  1  0.70500100  0.01556100  0.21860200  1
  H  2068  1  0.66569300  0.02656500  0.23886400  1
  H  2070  1  0.87284000  0.97236700  0.30068700  1
  H  2071  1  0.91357000  0.96417600  0.28045000  1
  H  2073  1  0.88470500  0.94299800  0.22729200  1
  H  2074  1  0.90916800  0.93348100  0.25071200  1
  H  2084  1  0.37628700  0.04802600  0.74538100  1
  H  2085  1  0.36046100  0.02502700  0.72356700  1
  H  2087  1  0.34824300  0.02592300  0.79877100  1
  H  2088  1  0.38523900  0.03848700  0.77806700  1
  H  2090  1  0.23388300  0.90703200  0.72285100  1
  H  2091  1  0.20245900  0.89125700  0.74416500  1
  H  2093  1  0.18477700  0.93356600  0.79451500  1
  H  2094  1  0.16380500  0.91497300  0.77208500  1
  H  2104  1  0.39343300  0.42839800  0.27181100  1
  H  2105  1  0.37162300  0.44556700  0.29426800  1
  H  2107  1  0.33470900  0.43152600  0.22040900  1
  H  2108  1  0.36554500  0.41360000  0.24120400  1
  H  2110  1  0.23258100  0.55197400  0.29775800  1
  H  2111  1  0.20152700  0.56893500  0.27678900  1
  H  2113  1  0.18731700  0.53200900  0.22507500  1
  H  2114  1  0.16598500  0.54886500  0.24771200  1
  H  2124  1  0.63959400  0.46214800  0.75078600  1
  H  2125  1  0.66648600  0.46819800  0.72737500  1
  H  2127  1  0.70432600  0.44421900  0.80011500  1
  H  2128  1  0.66444500  0.43402600  0.77976400  1
  H  2130  1  0.87343900  0.49129900  0.71849200  1
  H  2131  1  0.91456700  0.49866400  0.73879200  1
  H  2133  1  0.88685900  0.51727700  0.79223200  1
  H  2134  1  0.91177900  0.52771800  0.76894500  1
  N  399  1  0.96750100  0.05256200  0.99926900  1
  N  402  1  0.07651700  0.05173200  0.02019000  1
  N  405  1  0.97557500  0.90816300  0.99267700  1
  N  408  1  0.06011900  0.90725500  0.02546400  1
  N  411  1  0.11447500  0.97830900  0.03673400  1
  N  412  1  0.92524100  0.97995300  0.98208900  1
  N  419  1  0.07297300  0.40954300  0.99974300  1
  N  422  1  0.96391500  0.41008900  0.02061200  1
  N  425  1  0.06373300  0.55382600  0.99274900  1
  N  428  1  0.97903100  0.55468200  0.02549600  1
  N  431  1  0.92515900  0.48354500  0.03688100  1
  N  432  1  0.11438600  0.48213700  0.98224800  1
  N  439  1  0.45246500  0.05299900  0.49872500  1
  N  442  1  0.56134900  0.05171100  0.51974700  1
  N  445  1  0.45734700  0.90833700  0.49345600  1
  N  448  1  0.54208700  0.90753400  0.52618600  1
  N  451  1  0.59785100  0.97833200  0.53689400  1
  N  452  1  0.40859700  0.98044000  0.48228500  1
  N  459  1  0.55786700  0.40937400  0.50021900  1
  N  462  1  0.44902500  0.40941700  0.52127500  1
  N  465  1  0.54554300  0.55330100  0.49203100  1
  N  468  1  0.46067500  0.55423600  0.52472600  1
  N  471  1  0.40850600  0.48277300  0.53674100  1
  N  472  1  0.59768600  0.48191400  0.48208900  1
  N  479  1  0.56617200  0.25957000  0.06837900  1
  N  482  1  0.47467100  0.20090900  0.06848700  1
  N  485  1  0.54732900  0.27000800  0.14332200  1
  N  488  1  0.49296100  0.19184100  0.14349400  1
  N  491  1  0.45121100  0.16120600  0.10660100  1
  N  492  1  0.58893500  0.30016000  0.10631600  1
  N  499  1  0.47391400  0.25995300  0.95048000  1
  N  502  1  0.56547500  0.20324100  0.95070900  1
  N  505  1  0.49379100  0.27004400  0.87555400  1
  N  508  1  0.54844900  0.19305000  0.87570600  1
  N  511  1  0.58931700  0.16337800  0.91276300  1
  N  512  1  0.45117100  0.29959300  0.91237400  1
  N  519  1  0.48021500  0.69642800  0.94691200  1
  N  522  1  0.55643300  0.76593300  0.94711600  1
  N  525  1  0.48080700  0.69712200  0.87175800  1
  N  528  1  0.55990100  0.76476900  0.87197500  1
  N  531  1  0.58729100  0.80079800  0.90962500  1
  N  532  1  0.45125900  0.66137300  0.90927900  1
  N  539  1  0.55925500  0.69807500  0.07192600  1
  N  542  1  0.48231100  0.76559700  0.07199000  1
  N  545  1  0.55861900  0.69755600  0.14706000  1
  N  548  1  0.47943500  0.76360200  0.14711800  1
  N  551  1  0.45115300  0.79933000  0.10960700  1
  N  552  1  0.58830900  0.66292600  0.10941700  1
  N  559  1  0.04866300  0.26178700  0.56769700  1
  N  562  1  0.95761000  0.20275800  0.56818000  1
  N  565  1  0.03598300  0.26923900  0.64287800  1
  N  568  1  0.98137800  0.19112300  0.64289000  1
  N  571  1  0.93765500  0.16138100  0.60614100  1
  N  572  1  0.07523900  0.30039500  0.60567100  1
  N  579  1  0.95707300  0.25804400  0.45078600  1
  N  582  1  0.04827800  0.20103300  0.45129400  1
  N  585  1  0.98187500  0.27080700  0.37615100  1
  N  588  1  0.03660200  0.19382200  0.37609100  1
  N  591  1  0.07547500  0.16311800  0.41328400  1
  N  592  1  0.93756700  0.29944500  0.41285700  1
  N  599  1  0.96294900  0.69747200  0.44735800  1
  N  602  1  0.03976500  0.76664900  0.44751600  1
  N  605  1  0.96614300  0.69650700  0.37221900  1
  N  608  1  0.04568400  0.76388200  0.37239500  1
  N  611  1  0.07215400  0.80061000  0.41002700  1
  N  612  1  0.93550900  0.66150800  0.40971900  1
  N  619  1  0.04272700  0.69736300  0.57144700  1
  N  622  1  0.96530600  0.76461200  0.57146800  1
  N  625  1  0.04437800  0.69840400  0.64659000  1
  N  628  1  0.96453900  0.76401600  0.64660400  1
  N  631  1  0.93541600  0.79913900  0.60911200  1
  N  632  1  0.07319300  0.66307700  0.60894200  1
  N  639  1  0.15717800  0.99777900  0.27677200  1
  N  642  1  0.18055300  0.01122700  0.23336200  1
  N  645  1  0.35781700  0.96588800  0.28591700  1
  N  648  1  0.36452600  0.94772000  0.24224000  1
  N  651  1  0.28153900  0.97913100  0.21661500  1
  N  652  1  0.24859700  0.98308300  0.30266600  1
  N  659  1  0.84063700  0.02518100  0.73872300  1
  N  662  1  0.83463100  0.02477400  0.78365200  1
  N  665  1  0.70671100  0.91279400  0.73724400  1
  N  668  1  0.67653500  0.92939500  0.77981700  1
  N  671  1  0.74782300  0.97995600  0.80260900  1
  N  672  1  0.78016500  0.96764700  0.71681400  1
  N  679  1  0.84772900  0.44339300  0.27933000  1
  N  682  1  0.82504100  0.43449900  0.23528100  1
  N  685  1  0.70601300  0.54736600  0.28318300  1
  N  688  1  0.67845500  0.53498300  0.23990400  1
  N  691  1  0.74657900  0.48504100  0.21662500  1
  N  692  1  0.78030300  0.49350000  0.30250000  1
  N  699  1  0.15691300  0.46444600  0.74219900  1
  N  702  1  0.17977500  0.44928300  0.78543500  1
  N  705  1  0.35872500  0.49708600  0.73333700  1
  N  708  1  0.36619900  0.51340200  0.77722700  1
  N  711  1  0.28189200  0.48108100  0.80252600  1
  N  712  1  0.24890500  0.48020400  0.71646300  1
  N  1823  1  0.48444500  0.05256200  0.99926900  1
  N  1826  1  0.59346100  0.05173200  0.02019000  1
  N  1829  1  0.49251900  0.90816300  0.99267700  1
  N  1832  1  0.57706300  0.90725500  0.02546400  1
  N  1835  1  0.63141900  0.97830900  0.03673400  1
  N  1836  1  0.44218500  0.97995300  0.98208900  1
  N  1843  1  0.58991700  0.40954300  0.99974300  1
  N  1846  1  0.48085900  0.41008900  0.02061200  1
  N  1849  1  0.58067700  0.55382600  0.99274900  1
  N  1852  1  0.49597500  0.55468200  0.02549600  1
  N  1855  1  0.44210300  0.48354500  0.03688100  1
  N  1856  1  0.63133000  0.48213700  0.98224800  1
  N  1863  1  0.96940900  0.05299900  0.49872500  1
  N  1866  1  0.07829300  0.05171100  0.51974700  1
  N  1869  1  0.97429100  0.90833700  0.49345600  1
  N  1872  1  0.05903100  0.90753400  0.52618600  1
  N  1875  1  0.11479500  0.97833200  0.53689400  1
  N  1876  1  0.92554100  0.98044000  0.48228500  1
  N  1883  1  0.07481100  0.40937400  0.50021900  1
  N  1886  1  0.96596900  0.40941700  0.52127500  1
  N  1889  1  0.06248700  0.55330100  0.49203100  1
  N  1892  1  0.97761900  0.55423600  0.52472600  1
  N  1895  1  0.92545000  0.48277300  0.53674100  1
  N  1896  1  0.11463000  0.48191400  0.48208900  1
  N  1903  1  0.08311600  0.25957000  0.06837900  1
  N  1906  1  0.99161500  0.20090900  0.06848700  1
  N  1909  1  0.06427300  0.27000800  0.14332200  1
  N  1912  1  0.00990496  0.19184100  0.14349400  1
  N  1915  1  0.96815500  0.16120600  0.10660100  1
  N  1916  1  0.10587900  0.30016000  0.10631600  1
  N  1923  1  0.99085800  0.25995300  0.95048000  1
  N  1926  1  0.08241900  0.20324100  0.95070900  1
  N  1929  1  0.01073496  0.27004400  0.87555400  1
  N  1932  1  0.06539300  0.19305000  0.87570600  1
  N  1935  1  0.10626100  0.16337800  0.91276300  1
  N  1936  1  0.96811500  0.29959300  0.91237400  1
  N  1943  1  0.99715900  0.69642800  0.94691200  1
  N  1946  1  0.07337700  0.76593300  0.94711600  1
  N  1949  1  0.99775100  0.69712200  0.87175800  1
  N  1952  1  0.07684500  0.76476900  0.87197500  1
  N  1955  1  0.10423500  0.80079800  0.90962500  1
  N  1956  1  0.96820300  0.66137300  0.90927900  1
  N  1963  1  0.07619900  0.69807500  0.07192600  1
  N  1966  1  0.99925500  0.76559700  0.07199000  1
  N  1969  1  0.07556300  0.69755600  0.14706000  1
  N  1972  1  0.99637900  0.76360200  0.14711800  1
  N  1975  1  0.96809700  0.79933000  0.10960700  1
  N  1976  1  0.10525300  0.66292600  0.10941700  1
  N  1983  1  0.56560700  0.26178700  0.56769700  1
  N  1986  1  0.47455400  0.20275800  0.56818000  1
  N  1989  1  0.55292700  0.26923900  0.64287800  1
  N  1992  1  0.49832200  0.19112300  0.64289000  1
  N  1995  1  0.45459900  0.16138100  0.60614100  1
  N  1996  1  0.59218300  0.30039500  0.60567100  1
  N  2003  1  0.47401700  0.25804400  0.45078600  1
  N  2006  1  0.56522200  0.20103300  0.45129400  1
  N  2009  1  0.49881900  0.27080700  0.37615100  1
  N  2012  1  0.55354600  0.19382200  0.37609100  1
  N  2015  1  0.59241900  0.16311800  0.41328400  1
  N  2016  1  0.45451100  0.29944500  0.41285700  1
  N  2023  1  0.47989300  0.69747200  0.44735800  1
  N  2026  1  0.55670900  0.76664900  0.44751600  1
  N  2029  1  0.48308700  0.69650700  0.37221900  1
  N  2032  1  0.56262800  0.76388200  0.37239500  1
  N  2035  1  0.58909800  0.80061000  0.41002700  1
  N  2036  1  0.45245300  0.66150800  0.40971900  1
  N  2043  1  0.55967100  0.69736300  0.57144700  1
  N  2046  1  0.48225000  0.76461200  0.57146800  1
  N  2049  1  0.56132200  0.69840400  0.64659000  1
  N  2052  1  0.48148300  0.76401600  0.64660400  1
  N  2055  1  0.45236000  0.79913900  0.60911200  1
  N  2056  1  0.59013700  0.66307700  0.60894200  1
  N  2063  1  0.67412200  0.99777900  0.27677200  1
  N  2066  1  0.69749700  0.01122700  0.23336200  1
  N  2069  1  0.87476100  0.96588800  0.28591700  1
  N  2072  1  0.88147000  0.94772000  0.24224000  1
  N  2075  1  0.79848300  0.97913100  0.21661500  1
  N  2076  1  0.76554100  0.98308300  0.30266600  1
  N  2083  1  0.35758100  0.02518100  0.73872300  1
  N  2086  1  0.35157500  0.02477400  0.78365200  1
  N  2089  1  0.22365500  0.91279400  0.73724400  1
  N  2092  1  0.19347900  0.92939500  0.77981700  1
  N  2095  1  0.26476700  0.97995600  0.80260900  1
  N  2096  1  0.29710900  0.96764700  0.71681400  1
  N  2103  1  0.36467300  0.44339300  0.27933000  1
  N  2106  1  0.34198500  0.43449900  0.23528100  1
  N  2109  1  0.22295700  0.54736600  0.28318300  1
  N  2112  1  0.19539900  0.53498300  0.23990400  1
  N  2115  1  0.26352300  0.48504100  0.21662500  1
  N  2116  1  0.29724700  0.49350000  0.30250000  1
  N  2123  1  0.67385700  0.46444600  0.74219900  1
  N  2126  1  0.69671900  0.44928300  0.78543500  1
  N  2129  1  0.87566900  0.49708600  0.73333700  1
  N  2132  1  0.88314300  0.51340200  0.77722700  1
  N  2135  1  0.79883600  0.48108100  0.80252600  1
  N  2136  1  0.76584900  0.48020400  0.71646300  1
