# generated using pymatgen
data_H36C55N4
_symmetry_space_group_name_H-M   'P 1'
_cell_length_a   43.10730000
_cell_length_b   43.10730000
_cell_length_c   124.44600000
_cell_angle_alpha   90.00000000
_cell_angle_beta   90.00000000
_cell_angle_gamma   120.00000000
_symmetry_Int_Tables_number   1
_chemical_formula_structural   H36C55N4
_chemical_formula_sum   'H432 C660 N48'
_cell_volume   200268.76397431
_cell_formula_units_Z   12
loop_
 _symmetry_equiv_pos_site_id
 _symmetry_equiv_pos_as_xyz
  1  'x, y, z'
loop_
 _atom_site_type_symbol
 _atom_site_label
 _atom_site_symmetry_multiplicity
 _atom_site_fract_x
 _atom_site_fract_y
 _atom_site_fract_z
 _atom_site_occupancy
  H  25  1  0.36399200  0.67316100  0.95042500  1
  H  26  1  0.34829600  0.67401400  0.93223000  1
  H  27  1  0.37709100  0.70028600  0.89434600  1
  H  28  1  0.41731200  0.72073800  0.87972400  1
  H  29  1  0.50442500  0.75413200  0.90104200  1
  H  30  1  0.47340800  0.72856500  0.94212700  1
  H  31  1  0.44393100  0.78332300  0.91853300  1
  H  32  1  0.53708400  0.87595400  0.92909600  1
  H  33  1  0.56629600  0.84225000  0.93156100  1
  H  34  1  0.44907100  0.66559100  0.91591500  1
  H  35  1  0.57247800  0.73297600  0.92792900  1
  H  36  1  0.54757500  0.67190800  0.92347200  1
  H  39  1  0.37021100  0.67162300  0.91311200  1
  H  40  1  0.37419000  0.71434600  0.91480800  1
  H  42  1  0.56807200  0.78872900  0.92265300  1
  H  43  1  0.55185600  0.77646600  0.93598900  1
  H  47  1  0.44824100  0.72050900  0.96221500  1
  H  48  1  0.51384500  0.76727100  0.88081100  1
  H  49  1  0.45470800  0.61059600  0.91631800  1
  H  51  1  0.44694900  0.84468000  0.92304700  1
  H  76  1  0.30781000  0.63491800  0.28378000  1
  H  77  1  0.32435500  0.65059000  0.26558400  1
  H  78  1  0.32190300  0.62174800  0.22770600  1
  H  79  1  0.30213900  0.58151300  0.21308900  1
  H  80  1  0.24833800  0.49442700  0.23441100  1
  H  81  1  0.25378800  0.52549100  0.27549400  1
  H  82  1  0.33802100  0.55493200  0.25191100  1
  H  83  1  0.33747700  0.46178500  0.26249300  1
  H  84  1  0.27455700  0.43258100  0.26494800  1
  H  85  1  0.21516500  0.54981100  0.24927200  1
  H  86  1  0.15911100  0.42639700  0.26127700  1
  H  87  1  0.12295700  0.45130000  0.25680900  1
  H  90  1  0.30007300  0.62865700  0.24646300  1
  H  91  1  0.33880900  0.62467100  0.24817300  1
  H  93  1  0.21928000  0.43080500  0.25601800  1
  H  94  1  0.22320000  0.44700700  0.26935400  1
  H  98  1  0.27099400  0.55073800  0.29558600  1
  H  99  1  0.25206800  0.48498600  0.21417900  1
  H  100  1  0.15457800  0.54419000  0.24962200  1
  H  102  1  0.39634300  0.55196600  0.25638300  1
  H  127  1  0.32580300  0.69122700  0.61715800  1
  H  128  1  0.32499700  0.67469200  0.59896400  1
  H  129  1  0.29869900  0.67712800  0.56107800  1
  H  130  1  0.27822000  0.69684500  0.54645200  1
  H  131  1  0.24479500  0.75057300  0.56775700  1
  H  132  1  0.27033800  0.74516700  0.60884500  1
  H  133  1  0.21561000  0.66093800  0.58525600  1
  H  134  1  0.12300600  0.66149800  0.59582800  1
  H  135  1  0.15672700  0.72441400  0.59828900  1
  H  136  1  0.33333333  0.78377833  0.58261800  1
  H  137  1  0.26601300  0.83985600  0.59464000  1
  H  138  1  0.32707200  0.87600600  0.59016800  1
  H  141  1  0.32737700  0.69897500  0.57984200  1
  H  142  1  0.28467400  0.66020700  0.58154100  1
  H  144  1  0.21024900  0.77970100  0.58937200  1
  H  145  1  0.22251500  0.77574800  0.60270700  1
  H  149  1  0.27835000  0.72806100  0.62893000  1
  H  150  1  0.23172200  0.74691500  0.54753300  1
  H  151  1  0.38830500  0.84438300  0.58292200  1
  H  153  1  0.15419600  0.60259100  0.58980400  1
  H  178  1  0.63367700  0.32594600  0.95005500  1
  H  179  1  0.64953800  0.32421400  0.93193300  1
  H  180  1  0.62116300  0.29646600  0.89407600  1
  H  181  1  0.58114800  0.27598300  0.87939300  1
  H  182  1  0.49390500  0.24451600  0.90052800  1
  H  183  1  0.52439200  0.27161400  0.94158200  1
  H  184  1  0.55297300  0.21480500  0.91850500  1
  H  185  1  0.45898400  0.12374100  0.92941700  1
  H  186  1  0.43060200  0.15839600  0.93144600  1
  H  187  1  0.55030300  0.33371900  0.91516900  1
  H  188  1  0.42537700  0.26750400  0.92580500  1
  H  189  1  0.45092500  0.32808100  0.92061800  1
  H  192  1  0.62813900  0.32609200  0.91268900  1
  H  193  1  0.62352200  0.28320500  0.91465700  1
  H  195  1  0.42985700  0.21142800  0.92180400  1
  H  196  1  0.44545500  0.22470600  0.93514900  1
  H  200  1  0.54932700  0.27957200  0.96173900  1
  H  201  1  0.48474700  0.23064600  0.88031200  1
  H  202  1  0.53970200  0.38428000  0.90976600  1
  H  204  1  0.54886100  0.15322400  0.92312000  1
  H  229  1  0.69088100  0.36513400  0.28336500  1
  H  230  1  0.67336100  0.34938400  0.26523600  1
  H  231  1  0.67395300  0.37798400  0.22740200  1
  H  232  1  0.69349400  0.41808700  0.21274000  1
  H  233  1  0.74930200  0.50520300  0.23391600  1
  H  234  1  0.74579900  0.47447400  0.27495600  1
  H  235  1  0.66047000  0.44598400  0.25187600  1
  H  236  1  0.66330800  0.53987200  0.26284900  1
  H  237  1  0.72634200  0.56827600  0.26488500  1
  H  238  1  0.78210000  0.44876667  0.24851700  1
  H  239  1  0.84072700  0.57362900  0.25921400  1
  H  240  1  0.87579400  0.54815000  0.25400300  1
  H  243  1  0.69664800  0.37091100  0.24599800  1
  H  244  1  0.65836100  0.37548800  0.24798600  1
  H  246  1  0.78014800  0.56912300  0.25522800  1
  H  247  1  0.77783900  0.55345500  0.26856300  1
  H  251  1  0.72910400  0.44965500  0.29507500  1
  H  252  1  0.74453300  0.51444600  0.21369100  1
  H  253  1  0.84322900  0.45932200  0.24315200  1
  H  255  1  0.60297800  0.44999100  0.25644900  1
  H  280  1  0.67293200  0.30822300  0.61663200  1
  H  281  1  0.67469600  0.32572500  0.59850200  1
  H  282  1  0.70255800  0.32497600  0.56066400  1
  H  283  1  0.72306100  0.30537600  0.54600100  1
  H  284  1  0.75444300  0.24964500  0.56718500  1
  H  285  1  0.72728500  0.25323300  0.60822700  1
  H  286  1  0.78411900  0.33852500  0.58512700  1
  H  287  1  0.87518500  0.33567700  0.59607800  1
  H  288  1  0.84054600  0.27265200  0.59812900  1
  H  289  1  0.66524400  0.21689400  0.58179500  1
  H  290  1  0.73146900  0.15827400  0.59251400  1
  H  291  1  0.67091400  0.12320400  0.58731200  1
  H  294  1  0.67287200  0.30238300  0.57927000  1
  H  295  1  0.71575900  0.34065400  0.58124200  1
  H  297  1  0.78754100  0.21882500  0.58850200  1
  H  298  1  0.77422500  0.22119300  0.60183800  1
  H  302  1  0.71915000  0.26988100  0.62833800  1
  H  303  1  0.76837300  0.25431300  0.54696400  1
  H  304  1  0.61471000  0.15572600  0.57640800  1
  H  306  1  0.84570300  0.39603000  0.58974900  1
  H  331  1  0.69702000  0.32904100  0.38333100  1
  H  332  1  0.68498500  0.33021700  0.40196300  1
  H  333  1  0.69485300  0.30378600  0.43981300  1
  H  334  1  0.71505000  0.27984400  0.45356200  1
  H  335  1  0.75363400  0.23705800  0.43010100  1
  H  336  1  0.74330300  0.26522000  0.39000000  1
  H  337  1  0.66471200  0.21401800  0.41423700  1
  H  338  1  0.66176200  0.12009500  0.40320500  1
  H  339  1  0.72442900  0.15268900  0.40008800  1
  H  340  1  0.78835400  0.32994600  0.41581500  1
  H  341  1  0.84168900  0.26152400  0.40253400  1
  H  342  1  0.87894300  0.32290500  0.40675600  1
  H  345  1  0.71290300  0.33048300  0.42056800  1
  H  346  1  0.67112900  0.29021400  0.41959200  1
  H  348  1  0.78155000  0.20599500  0.40849500  1
  H  349  1  0.77618300  0.21804000  0.39527200  1
  H  353  1  0.73041900  0.27680300  0.37117800  1
  H  354  1  0.76456400  0.23349400  0.44933400  1
  H  355  1  0.84808400  0.38429400  0.41437700  1
  H  357  1  0.60520200  0.15362400  0.41005600  1
  H  382  1  0.66983600  0.36869700  0.04981000  1
  H  383  1  0.66858500  0.35515100  0.06841300  1
  H  384  1  0.69528100  0.39071600  0.10630100  1
  H  385  1  0.71947600  0.43457300  0.12012200  1
  H  386  1  0.76195100  0.51642700  0.09681100  1
  H  387  1  0.73378700  0.47866800  0.05664100  1
  H  388  1  0.78479700  0.45067100  0.08080400  1
  H  389  1  0.87888500  0.54166500  0.06987500  1
  H  390  1  0.84643300  0.57192300  0.06681400  1
  H  391  1  0.66905700  0.45872000  0.08245900  1
  H  392  1  0.73782700  0.58070700  0.06938500  1
  H  393  1  0.67646800  0.55667800  0.07359600  1
  H  396  1  0.66837600  0.38249500  0.08708000  1
  H  397  1  0.70859900  0.38092600  0.08604300  1
  H  399  1  0.79322800  0.57578700  0.07527500  1
  H  400  1  0.78114800  0.55861000  0.06203300  1
  H  404  1  0.72218500  0.45457800  0.03778900  1
  H  405  1  0.76498200  0.53039200  0.11616900  1
  H  406  1  0.61491200  0.46427400  0.08124600  1
  H  408  1  0.84532800  0.45159600  0.07651300  1
  H  433  1  0.63086000  0.30151000  0.71676700  1
  H  434  1  0.64398900  0.31364500  0.73539900  1
  H  435  1  0.60753000  0.30399100  0.77322100  1
  H  436  1  0.56332900  0.28388200  0.78695000  1
  H  437  1  0.48208200  0.24545900  0.76345100  1
  H  438  1  0.52075400  0.25562700  0.72336800  1
  H  439  1  0.54819500  0.33432200  0.74760600  1
  H  440  1  0.45741200  0.33753600  0.73652400  1
  H  441  1  0.42722800  0.27486800  0.73339900  1
  H  442  1  0.54015600  0.21053500  0.74919600  1
  H  443  1  0.41842700  0.15745000  0.73590900  1
  H  444  1  0.44240100  0.12008000  0.74014600  1
  H  447  1  0.61621200  0.28588900  0.75399200  1
  H  448  1  0.61783100  0.32771300  0.75299600  1
  H  450  1  0.42321200  0.21769400  0.74183000  1
  H  451  1  0.44065400  0.22296700  0.72861500  1
  H  455  1  0.54567400  0.26906700  0.70458200  1
  H  456  1  0.46747800  0.23459200  0.78267500  1
  H  457  1  0.53466100  0.15081900  0.74783600  1
  H  459  1  0.54739500  0.39395600  0.74338000  1
  H  484  1  0.30071900  0.67073100  0.38360700  1
  H  485  1  0.31415500  0.67051900  0.40216300  1
  H  486  1  0.30665900  0.69838700  0.44004300  1
  H  487  1  0.28680600  0.72232200  0.45388600  1
  H  488  1  0.24575900  0.76329600  0.43062100  1
  H  489  1  0.25334100  0.73340600  0.39051500  1
  H  490  1  0.33367500  0.78679600  0.41425800  1
  H  491  1  0.33446200  0.87917700  0.40274300  1
  H  492  1  0.27162900  0.84564100  0.40000200  1
  H  493  1  0.21096700  0.66997500  0.41685500  1
  H  494  1  0.15514600  0.73703300  0.40439900  1
  H  495  1  0.11876400  0.67643000  0.40958700  1
  H  498  1  0.28745900  0.67072300  0.42095900  1
  H  499  1  0.32884000  0.71125500  0.41964300  1
  H  501  1  0.21579400  0.79294200  0.40907600  1
  H  502  1  0.21972100  0.77958600  0.39588900  1
  H  506  1  0.26524000  0.72152700  0.37164800  1
  H  507  1  0.23569500  0.76711600  0.44983500  1
  H  508  1  0.15016600  0.62026100  0.42156000  1
  H  510  1  0.39242500  0.84744500  0.40994700  1
  H  535  1  0.32836000  0.63015200  0.05020400  1
  H  536  1  0.32854300  0.64389200  0.06875000  1
  H  537  1  0.30038100  0.60873300  0.10663000  1
  H  538  1  0.27626400  0.56501900  0.12050000  1
  H  539  1  0.23554100  0.48285700  0.09727700  1
  H  540  1  0.26558600  0.52013800  0.05715500  1
  H  541  1  0.21216200  0.54724200  0.08086000  1
  H  542  1  0.11980300  0.45570500  0.06931300  1
  H  543  1  0.15330500  0.42636000  0.06659700  1
  H  544  1  0.32893100  0.54124200  0.08351200  1
  H  545  1  0.26177200  0.41831200  0.07110500  1
  H  546  1  0.32235100  0.44248400  0.07630400  1
  H  549  1  0.32823000  0.61706300  0.08757000  1
  H  550  1  0.28772800  0.61795100  0.08622000  1
  H  552  1  0.20589400  0.42315600  0.07573300  1
  H  553  1  0.21934300  0.44039700  0.06254700  1
  H  557  1  0.27752600  0.54381000  0.03827900  1
  H  558  1  0.23151900  0.46901300  0.11660200  1
  H  559  1  0.37873700  0.53032600  0.08814800  1
  H  561  1  0.15141000  0.54530300  0.07647300  1
  H  586  1  0.36853400  0.69764300  0.71690500  1
  H  587  1  0.35493200  0.68452100  0.73547600  1
  H  588  1  0.39039200  0.69247300  0.77336400  1
  H  589  1  0.43421900  0.71239100  0.78720000  1
  H  590  1  0.51618000  0.75319200  0.76391300  1
  H  591  1  0.47860900  0.74525800  0.72380700  1
  H  592  1  0.45171300  0.66517600  0.74763000  1
  H  593  1  0.54324200  0.66424400  0.73612400  1
  H  594  1  0.57253700  0.72704900  0.73332200  1
  H  595  1  0.45764000  0.78792200  0.75010500  1
  H  596  1  0.58045100  0.84359100  0.73759500  1
  H  597  1  0.55627100  0.88003900  0.74274400  1
  H  600  1  0.38190200  0.71152000  0.75425300  1
  H  601  1  0.38101100  0.67010600  0.75298800  1
  H  603  1  0.57572800  0.78298800  0.74234000  1
  H  604  1  0.55838600  0.77892400  0.72915600  1
  H  608  1  0.45488300  0.73295800  0.70505100  1
  H  609  1  0.53021500  0.76321900  0.78317400  1
  H  610  1  0.46852200  0.84864400  0.75467100  1
  H  612  1  0.45360800  0.60635600  0.74333800  1
  H  619  1  0.54574200  0.78017400  0.84138300  1
  H  620  1  0.53618500  0.78121200  0.86040300  1
  H  627  1  0.48240800  0.67752100  0.82548900  1
  H  628  1  0.48409200  0.67470000  0.80636500  1
  H  629  1  0.51965200  0.78514800  0.80445800  1
  H  630  1  0.43408800  0.68944800  0.85720400  1
  H  631  1  0.51770200  0.78808100  0.82364400  1
  H  632  1  0.44317200  0.68844600  0.83836600  1
  H  641  1  0.23301300  0.45318700  0.17472400  1
  H  642  1  0.24368600  0.46269700  0.19374500  1
  H  649  1  0.19346000  0.51641600  0.15892600  1
  H  650  1  0.18884500  0.51484100  0.13980100  1
  H  651  1  0.26392100  0.47954900  0.13777600  1
  H  652  1  0.25393400  0.56477200  0.19060300  1
  H  653  1  0.26891300  0.48138200  0.15695700  1
  H  654  1  0.24376400  0.55573000  0.17175900  1
  H  663  1  0.21896800  0.76614200  0.50810500  1
  H  664  1  0.21786100  0.75546900  0.52712100  1
  H  671  1  0.32151900  0.80500200  0.49221700  1
  H  672  1  0.32438800  0.80955100  0.47309300  1
  H  673  1  0.21384600  0.73502900  0.47116500  1
  H  674  1  0.30922600  0.74446100  0.52390300  1
  H  675  1  0.21085800  0.73010100  0.49034800  1
  H  676  1  0.31030600  0.75464300  0.50506800  1
  H  685  1  0.45283200  0.21766600  0.84099200  1
  H  686  1  0.46257200  0.21668100  0.85999800  1
  H  693  1  0.51589000  0.32023500  0.82504700  1
  H  694  1  0.51383900  0.32291700  0.80592500  1
  H  695  1  0.47840000  0.21249100  0.80405200  1
  H  696  1  0.56459200  0.30850600  0.85672900  1
  H  697  1  0.48071500  0.20969500  0.82323200  1
  H  698  1  0.55531400  0.30946300  0.83789700  1
  H  707  1  0.76320800  0.54602700  0.17430600  1
  H  708  1  0.75248800  0.53642900  0.19331900  1
  H  715  1  0.80365800  0.48354400  0.15850800  1
  H  716  1  0.80827200  0.48513900  0.13939200  1
  H  717  1  0.73246000  0.51948700  0.13735900  1
  H  718  1  0.74329500  0.43480100  0.19018500  1
  H  719  1  0.72747200  0.51763000  0.15654000  1
  H  720  1  0.75352000  0.44393000  0.17134900  1
  H  729  1  0.78154100  0.23568200  0.50762200  1
  H  730  1  0.78248600  0.24633700  0.52663000  1
  H  737  1  0.67883800  0.19567600  0.49167600  1
  H  738  1  0.67618800  0.19110500  0.47255200  1
  H  739  1  0.78650700  0.26649200  0.47070400  1
  H  740  1  0.69022400  0.25578400  0.52339800  1
  H  741  1  0.78927100  0.27145000  0.48988600  1
  H  742  1  0.68931300  0.24563700  0.50456400  1
  H  751  1  0.44509700  0.49391400  0.91259800  1
  H  752  1  0.44369100  0.54871200  0.91328000  1
  H  759  1  0.54267900  0.49727300  0.90185100  1
  H  760  1  0.54485000  0.44309800  0.90407800  1
  H  761  1  0.46631600  0.40980700  0.92841000  1
  H  762  1  0.55676100  0.60720900  0.91371200  1
  H  763  1  0.46445100  0.46383500  0.92637900  1
  H  764  1  0.55836500  0.55274200  0.91331100  1
  H  773  1  0.04756100  0.55393900  0.24587600  1
  H  774  1  0.10373200  0.55526100  0.24657800  1
  H  781  1  0.95322900  0.45624200  0.23525300  1
  H  782  1  0.89689800  0.45411400  0.23746800  1
  H  783  1  0.94228900  0.53304800  0.26168300  1
  H  784  1  0.04902200  0.44219900  0.24717400  1
  H  785  1  0.99816700  0.53487500  0.25966500  1
  H  786  1  0.99298400  0.44067800  0.24675600  1
  H  795  1  0.50504100  0.95142700  0.57922300  1
  H  796  1  0.45022500  0.89524300  0.57992200  1
  H  803  1  0.50167000  0.04570700  0.56851000  1
  H  804  1  0.55585200  0.10204800  0.57073000  1
  H  805  1  0.58927500  0.05674300  0.59500600  1
  H  806  1  0.39178700  0.94987100  0.58039100  1
  H  807  1  0.53523400  0.00085900  0.59298500  1
  H  808  1  0.44626200  0.00591600  0.57998100  1
  H  817  1  0.94844200  0.50148500  0.41857500  1
  H  818  1  0.89461100  0.44469400  0.41783700  1
  H  825  1  0.04600400  0.50556400  0.42909800  1
  H  826  1  0.10000000  0.56203300  0.42705400  1
  H  827  1  0.05085000  0.59089900  0.40271800  1
  H  828  1  0.95576000  0.39287300  0.41669500  1
  H  829  1  0.99721900  0.53451700  0.40459100  1
  H  830  1  0.00962800  0.44957200  0.41720100  1
  H  839  1  0.49763700  0.44735800  0.08552100  1
  H  840  1  0.55448400  0.45043100  0.08472500  1
  H  847  1  0.49381300  0.54148300  0.09550100  1
  H  848  1  0.43725700  0.53886100  0.09352400  1
  H  849  1  0.40738000  0.45911800  0.06968200  1
  H  850  1  0.60597700  0.56328200  0.08287700  1
  H  851  1  0.46384700  0.46201500  0.07149000  1
  H  852  1  0.54922700  0.56032500  0.08343900  1
  H  861  1  0.55156300  0.05051800  0.75212500  1
  H  862  1  0.54848600  0.10429300  0.75137200  1
  H  869  1  0.45753000  0.95256100  0.76213900  1
  H  870  1  0.46012300  0.89862600  0.76011100  1
  H  871  1  0.53965200  0.94852400  0.73621800  1
  H  872  1  0.43562100  0.04295500  0.74960800  1
  H  873  1  0.53678700  0.00209600  0.73807400  1
  H  874  1  0.43857300  0.98914900  0.75013100  1
  H  883  1  0.44415000  0.95562800  0.92043900  1
  H  884  1  0.44000700  0.89852800  0.92237200  1
  H  891  1  0.55111900  0.04214500  0.91960000  1
  H  892  1  0.55579100  0.09942100  0.92175600  1
  H  893  1  0.45233800  0.05856300  0.90860400  1
  H  894  1  0.54067900  0.93879300  0.90734400  1
  H  895  1  0.44762700  0.00132600  0.90632400  1
  H  896  1  0.54484300  0.99585500  0.90528400  1
  H  905  1  0.51011000  0.55471700  0.25380700  1
  H  906  1  0.45715300  0.55884200  0.25576300  1
  H  913  1  0.48964000  0.44778800  0.25297400  1
  H  914  1  0.54224600  0.44312200  0.25514200  1
  H  915  1  0.60485200  0.54654300  0.24197800  1
  H  916  1  0.39672200  0.45818700  0.24072800  1
  H  917  1  0.55233400  0.55126000  0.23968600  1
  H  918  1  0.44963000  0.45404600  0.23864600  1
  H  927  1  0.04329000  0.48887600  0.58711200  1
  H  928  1  0.10035800  0.54182600  0.58908300  1
  H  935  1  0.95676100  0.50935100  0.58624800  1
  H  936  1  0.89947100  0.45674100  0.58839000  1
  H  937  1  0.94038400  0.39415300  0.57526800  1
  H  938  1  0.06014000  0.60229100  0.57406200  1
  H  939  1  0.99762700  0.44667900  0.57300100  1
  H  940  1  0.00310300  0.54938000  0.57196000  1
  H  949  1  0.48997300  0.04497400  0.41273800  1
  H  950  1  0.54399200  0.10100200  0.41063500  1
  H  957  1  0.50716500  0.95622200  0.41357600  1
  H  958  1  0.45352700  0.89994800  0.41125400  1
  H  959  1  0.39321200  0.94367300  0.42420900  1
  H  960  1  0.60214400  0.05792200  0.42549500  1
  H  961  1  0.44680800  0.99991800  0.42667500  1
  H  962  1  0.54812900  0.00190100  0.42774700  1
  H  971  1  0.95398700  0.44510700  0.07926100  1
  H  972  1  0.89787700  0.44295400  0.07719600  1
  H  979  1  0.04255100  0.55106100  0.08023300  1
  H  980  1  0.09888200  0.55384800  0.07790300  1
  H  981  1  0.05532100  0.44970400  0.09076800  1
  H  982  1  0.94065500  0.54388500  0.09223000  1
  H  983  1  0.99900200  0.44689400  0.09323500  1
  H  984  1  0.99675100  0.54604400  0.09443200  1
  H  993  1  0.55378200  0.50910200  0.74610900  1
  H  994  1  0.55593600  0.45516200  0.74400600  1
  H  1001  1  0.44786000  0.49172200  0.74698000  1
  H  1002  1  0.44510700  0.54528600  0.74466900  1
  H  1003  1  0.54908500  0.60574500  0.75764400  1
  H  1004  1  0.45482700  0.39686300  0.75892700  1
  H  1005  1  0.55187400  0.55222200  0.76009500  1
  H  1006  1  0.45267600  0.45079500  0.76117200  1
  H  1015  1  0.40052800  0.68901500  0.99946100  1
  H  1016  1  0.41795000  0.71099600  0.98149800  1
  H  1023  1  0.39779200  0.59164100  0.00836300  1
  H  1024  1  0.37325000  0.56680400  0.02560700  1
  H  1025  1  0.31283200  0.61919600  0.02514900  1
  H  1026  1  0.38716800  0.60670200  0.97091500  1
  H  1027  1  0.33740100  0.64426100  0.00792900  1
  H  1028  1  0.36990000  0.58458000  0.98881100  1
  H  1037  1  0.28727800  0.59848000  0.33281800  1
  H  1038  1  0.29175200  0.58099700  0.31485200  1
  H  1045  1  0.19271400  0.60131000  0.34172600  1
  H  1046  1  0.19245200  0.62584200  0.35897800  1
  H  1047  1  0.30526500  0.68619300  0.35851100  1
  H  1048  1  0.21826000  0.61182800  0.30428700  1
  H  1049  1  0.30572500  0.66163400  0.34129300  1
  H  1050  1  0.21348900  0.62916200  0.32218400  1
  H  1059  1  0.30964200  0.71171300  0.66620100  1
  H  1060  1  0.28769800  0.70734100  0.64823800  1
  H  1067  1  0.40736600  0.80600800  0.67511400  1
  H  1068  1  0.43219300  0.80605700  0.69234200  1
  H  1069  1  0.37912800  0.69322000  0.69184600  1
  H  1070  1  0.39211500  0.78047600  0.63766500  1
  H  1071  1  0.35408200  0.69297100  0.67465200  1
  H  1072  1  0.41420600  0.78513700  0.65555300  1
  H  1081  1  0.59766400  0.31065500  0.99894300  1
  H  1082  1  0.57978600  0.28874100  0.98099500  1
  H  1089  1  0.60166300  0.40858700  0.00792100  1
  H  1090  1  0.62659100  0.43326300  0.02514900  1
  H  1091  1  0.68593800  0.37976400  0.02454600  1
  H  1092  1  0.61137400  0.39325300  0.97044800  1
  H  1093  1  0.66098700  0.35486600  0.00735000  1
  H  1094  1  0.62911200  0.41531700  0.98832900  1
  H  1103  1  0.71153200  0.40147100  0.33231300  1
  H  1104  1  0.70751700  0.41920900  0.31434600  1
  H  1111  1  0.80523500  0.39712400  0.34132900  1
  H  1112  1  0.80488400  0.37226300  0.35857600  1
  H  1113  1  0.69202700  0.31320400  0.35797400  1
  H  1114  1  0.78009600  0.38710100  0.30385000  1
  H  1115  1  0.69218200  0.33809400  0.34075900  1
  H  1116  1  0.78441300  0.36951700  0.32175300  1
  H  1125  1  0.68857500  0.28731900  0.66560200  1
  H  1126  1  0.71033200  0.29139100  0.64762800  1
  H  1133  1  0.59045000  0.19369100  0.67455900  1
  H  1134  1  0.56606500  0.19391800  0.69183800  1
  H  1135  1  0.62001700  0.30678400  0.69134200  1
  H  1136  1  0.60559900  0.21909700  0.63710400  1
  H  1137  1  0.64463400  0.30675500  0.67409400  1
  H  1138  1  0.58368800  0.21471800  0.65501200  1
  C  1  1  0.48977700  0.71691900  0.92094400  1
  C  2  1  0.52595800  0.73626500  0.92445200  1
  C  3  1  0.52284700  0.79254600  0.92627200  1
  C  4  1  0.48681100  0.77462800  0.92259900  1
  C  5  1  0.46972600  0.79540100  0.92130400  1
  C  6  1  0.48792800  0.83272600  0.92324900  1
  C  7  1  0.52317900  0.84914100  0.92735300  1
  C  8  1  0.54040200  0.82932600  0.92883600  1
  C  9  1  0.54646800  0.71921500  0.92531400  1
  C  10  1  0.53164200  0.68311700  0.92263500  1
  C  11  1  0.49580700  0.66281000  0.91900600  1
  C  12  1  0.47520600  0.68004100  0.91837500  1
  C  13  1  0.43835600  0.71743000  0.92886100  1
  C  14  1  0.40149100  0.70112700  0.92615000  1
  C  15  1  0.41640000  0.71421100  0.90652600  1
  C  16  1  0.45365700  0.73033400  0.90867500  1
  C  17  1  0.40391900  0.71152600  0.89591000  1
  C  18  1  0.42781400  0.72356000  0.88727900  1
  C  19  1  0.46509000  0.73860900  0.88891000  1
  C  20  1  0.47748000  0.74264800  0.89968700  1
  C  21  1  0.44706700  0.71698300  0.93992400  1
  C  22  1  0.42043400  0.69996600  0.94796400  1
  C  23  1  0.38419800  0.68485200  0.94488200  1
  C  24  1  0.37488800  0.68549000  0.93416200  1
  C  37  1  0.46712400  0.73475100  0.92022400  1
  C  38  1  0.38889400  0.69974000  0.91504300  1
  C  41  1  0.54384500  0.77434500  0.92755300  1
  C  44  1  0.48815900  0.74885300  0.88004900  1
  C  45  1  0.48110800  0.62672000  0.91645600  1
  C  46  1  0.42861600  0.69879400  0.95873500  1
  C  50  1  0.47231200  0.85337100  0.92107100  1
  C  52  1  0.22577300  0.50910100  0.25430400  1
  C  53  1  0.20892900  0.47292000  0.25781300  1
  C  54  1  0.26831600  0.47602600  0.25964700  1
  C  55  1  0.28644300  0.51206300  0.25597400  1
  C  56  1  0.32430600  0.52914700  0.25468900  1
  C  57  1  0.34342100  0.51094100  0.25663900  1
  C  58  1  0.32457700  0.47569700  0.26074700  1
  C  59  1  0.28753000  0.45846500  0.26221500  1
  C  60  1  0.17136700  0.45240700  0.25866400  1
  C  61  1  0.15010200  0.46723700  0.25597800  1
  C  62  1  0.16563800  0.50307500  0.25235200  1
  C  63  1  0.20347100  0.52367300  0.25173000  1
  C  64  1  0.27769500  0.56052500  0.26222300  1
  C  65  1  0.29826100  0.59738800  0.25950900  1
  C  66  1  0.29648200  0.58245600  0.23988900  1
  C  67  1  0.27532900  0.54520500  0.24204000  1
  C  68  1  0.30629900  0.59492300  0.22927300  1
  C  69  1  0.29444500  0.57102000  0.22064400  1
  C  70  1  0.27219400  0.53374900  0.22227700  1
  C  71  1  0.26383400  0.52136900  0.23305500  1
  C  72  1  0.26852200  0.55183100  0.27328600  1
  C  73  1  0.27815500  0.57847100  0.28132500  1
  C  74  1  0.29928100  0.61470500  0.27823800  1
  C  75  1  0.30922000  0.62400100  0.26751800  1
  C  88  1  0.26626000  0.53175000  0.25359100  1
  C  89  1  0.30949800  0.60997200  0.24840200  1
  C  92  1  0.22911200  0.45502700  0.26091900  1
  C  95  1  0.25935600  0.51067700  0.21341700  1
  C  96  1  0.14425200  0.51778900  0.24980700  1
  C  97  1  0.26882300  0.57030200  0.29209700  1
  C  101  1  0.37968100  0.52654100  0.25446400  1
  C  103  1  0.28203800  0.77319000  0.58765600  1
  C  104  1  0.26270700  0.79003500  0.59116800  1
  C  105  1  0.20641700  0.73065100  0.59299200  1
  C  106  1  0.22432400  0.71252200  0.58931800  1
  C  107  1  0.20353800  0.67466200  0.58802700  1
  C  108  1  0.16621900  0.65555000  0.58997700  1
  C  109  1  0.14981900  0.67439600  0.59408400  1
  C  110  1  0.16963600  0.71144200  0.59555300  1
  C  111  1  0.27976500  0.82759800  0.59202400  1
  C  112  1  0.31585600  0.84886200  0.58933400  1
  C  113  1  0.33615000  0.83332400  0.58570300  1
  C  114  1  0.31891300  0.79548800  0.58508000  1
  C  115  1  0.28152000  0.72127100  0.59558300  1
  C  116  1  0.29785400  0.70073400  0.59287700  1
  C  117  1  0.28475300  0.70251000  0.57325200  1
  C  118  1  0.26861400  0.72363100  0.57539500  1
  C  119  1  0.28744200  0.69270300  0.56263800  1
  C  120  1  0.27538300  0.70452700  0.55400500  1
  C  121  1  0.26032300  0.72674600  0.55562900  1
  C  122  1  0.25628100  0.73511100  0.56640500  1
  C  123  1  0.28194600  0.73042700  0.60664500  1
  C  124  1  0.29896000  0.72082600  0.61469100  1
  C  125  1  0.31411100  0.69973200  0.61161200  1
  C  126  1  0.31349800  0.68978900  0.60089300  1
  C  139  1  0.26420000  0.73270400  0.58694300  1
  C  140  1  0.29925400  0.68951700  0.58177300  1
  C  143  1  0.22462900  0.76985300  0.59427100  1
  C  146  1  0.25006100  0.73954500  0.54676500  1
  C  147  1  0.37223300  0.85471200  0.58314300  1
  C  148  1  0.30008100  0.73015400  0.62546100  1
  C  152  1  0.14556200  0.61929000  0.58780200  1
  C  154  1  0.50875300  0.28275400  0.92017600  1
  C  155  1  0.47225300  0.26387400  0.92339700  1
  C  156  1  0.47456400  0.20739400  0.92594400  1
  C  157  1  0.51065500  0.22461600  0.92233200  1
  C  158  1  0.52722400  0.20328200  0.92129100  1
  C  159  1  0.50847900  0.16607000  0.92343200  1
  C  160  1  0.47328500  0.15044400  0.92754600  1
  C  161  1  0.45654100  0.17081600  0.92876600  1
  C  162  1  0.45178200  0.28107800  0.92356500  1
  C  163  1  0.46704800  0.31693000  0.92053900  1
  C  164  1  0.50354000  0.33706100  0.91752500  1
  C  165  1  0.52391100  0.31954500  0.91739300  1
  C  166  1  0.55957400  0.28178500  0.92841400  1
  C  167  1  0.59644500  0.29749200  0.92577300  1
  C  168  1  0.58176800  0.28354400  0.90616700  1
  C  169  1  0.54452400  0.26795400  0.90824800  1
  C  170  1  0.59434800  0.28560700  0.89558900  1
  C  171  1  0.57058900  0.27356200  0.88692300  1
  C  172  1  0.53336200  0.25910100  0.88848200  1
  C  173  1  0.52083500  0.25556700  0.89922800  1
  C  174  1  0.55074900  0.28281800  0.93943300  1
  C  175  1  0.57730200  0.29975700  0.94750100  1
  C  176  1  0.61354100  0.31434200  0.94448700  1
  C  177  1  0.62294800  0.31318200  0.93381100  1
  C  190  1  0.53091400  0.26435200  0.91975700  1
  C  191  1  0.60914500  0.29814400  0.91471900  1
  C  194  1  0.45386300  0.22604200  0.92678200  1
  C  197  1  0.51047000  0.24900000  0.87958600  1
  C  198  1  0.51849500  0.37282400  0.91458200  1
  C  199  1  0.56900500  0.30121100  0.95824600  1
  C  203  1  0.52339900  0.14474300  0.92133200  1
  C  205  1  0.77264500  0.49026300  0.25355100  1
  C  206  1  0.79023900  0.52674400  0.25679100  1
  C  207  1  0.73142400  0.52436800  0.25935400  1
  C  208  1  0.71258200  0.48830200  0.25571900  1
  C  209  1  0.67468200  0.47172700  0.25466700  1
  C  210  1  0.65618600  0.49042700  0.25683300  1
  C  211  1  0.67572100  0.52558400  0.26097600  1
  C  212  1  0.71284100  0.54235200  0.26219200  1
  C  213  1  0.82791200  0.54723900  0.25695900  1
  C  214  1  0.84852100  0.53201200  0.25391800  1
  C  215  1  0.83218700  0.49553500  0.25088800  1
  C  216  1  0.79429900  0.47514400  0.25075300  1
  C  217  1  0.72086000  0.43937000  0.26176700  1
  C  218  1  0.69972200  0.40251300  0.25910500  1
  C  219  1  0.70043800  0.41730800  0.23951100  1
  C  220  1  0.72209200  0.45454100  0.24161000  1
  C  221  1  0.68991000  0.40479300  0.22892900  1
  C  222  1  0.70161500  0.42860200  0.22027500  1
  C  223  1  0.72440800  0.46581500  0.22185300  1
  C  224  1  0.73338800  0.47828500  0.23260400  1
  C  225  1  0.73069200  0.44812700  0.27279000  1
  C  226  1  0.72106700  0.42153000  0.28084500  1
  C  227  1  0.69943500  0.38530800  0.27780900  1
  C  228  1  0.68890900  0.37596300  0.26712800  1
  C  241  1  0.73208300  0.46808200  0.25312600  1
  C  242  1  0.68767800  0.38988000  0.24804800  1
  C  245  1  0.77077100  0.54509100  0.26019300  1
  C  248  1  0.73723900  0.48874200  0.21296600  1
  C  249  1  0.85302100  0.48061700  0.24793500  1
  C  250  1  0.73071800  0.42975400  0.29159900  1
  C  254  1  0.61994800  0.47551100  0.25472300  1
  C  256  1  0.71619900  0.22635400  0.58682900  1
  C  257  1  0.73508300  0.20876200  0.59007300  1
  C  258  1  0.79154300  0.26757400  0.59261300  1
  C  259  1  0.77431800  0.28641500  0.58897800  1
  C  260  1  0.79565100  0.32431300  0.58791700  1
  C  261  1  0.83285300  0.34280400  0.59007300  1
  C  262  1  0.84848000  0.32326800  0.59421200  1
  C  263  1  0.82811400  0.28615500  0.59544600  1
  C  264  1  0.71789300  0.17108900  0.59025700  1
  C  265  1  0.68205200  0.15047600  0.58722100  1
  C  266  1  0.66191800  0.16680900  0.58418100  1
  C  267  1  0.67942000  0.20469600  0.58403700  1
  C  268  1  0.71712600  0.27816700  0.59503500  1
  C  269  1  0.70142500  0.29932200  0.59237200  1
  C  270  1  0.71543700  0.29853200  0.57277600  1
  C  271  1  0.73101000  0.27687400  0.57487600  1
  C  272  1  0.71341000  0.30902200  0.56219100  1
  C  273  1  0.72546300  0.29726500  0.55353700  1
  C  274  1  0.73990000  0.27448700  0.55511800  1
  C  275  1  0.74341900  0.26553900  0.56587000  1
  C  276  1  0.71605800  0.26835100  0.60606000  1
  C  277  1  0.69910500  0.27800000  0.61411400  1
  C  278  1  0.68453400  0.29964700  0.61107700  1
  C  279  1  0.68572200  0.31017300  0.60039500  1
  C  292  1  0.73458700  0.26691600  0.58639500  1
  C  293  1  0.70081300  0.31133700  0.58131300  1
  C  296  1  0.77290600  0.22822800  0.59346600  1
  C  299  1  0.74999600  0.26165100  0.54623200  1
  C  300  1  0.62616600  0.14597500  0.58122500  1
  C  301  1  0.69766100  0.26834800  0.62487000  1
  C  305  1  0.85417200  0.37904100  0.58795800  1
  C  307  1  0.77662000  0.27841700  0.41065000  1
  C  308  1  0.79259800  0.25871800  0.40675600  1
  C  309  1  0.73239900  0.20291200  0.40550800  1
  C  310  1  0.71525500  0.22141100  0.40950800  1
  C  311  1  0.67756300  0.20137100  0.41120400  1
  C  312  1  0.65757600  0.16404800  0.40931400  1
  C  313  1  0.67535400  0.14693300  0.40491900  1
  C  314  1  0.71224200  0.16609400  0.40305000  1
  C  315  1  0.83003200  0.27553200  0.40541700  1
  C  316  1  0.85194600  0.31173100  0.40795300  1
  C  317  1  0.83710200  0.33224800  0.41191500  1
  C  318  1  0.79948400  0.31527200  0.41308400  1
  C  319  1  0.72445500  0.27946700  0.40383600  1
  C  320  1  0.70746500  0.29878100  0.40720900  1
  C  321  1  0.71243200  0.28507500  0.42667000  1
  C  322  1  0.72970100  0.26564100  0.42370600  1
  C  323  1  0.70696700  0.28948600  0.43762200  1
  C  324  1  0.71877300  0.27526300  0.44571800  1
  C  325  1  0.73568900  0.25538800  0.44313100  1
  C  326  1  0.74094900  0.25096400  0.43210200  1
  C  327  1  0.73090600  0.27880600  0.39261500  1
  C  328  1  0.72192300  0.29741000  0.38496200  1
  C  329  1  0.70454800  0.31577700  0.38861400  1
  C  330  1  0.69733200  0.31633400  0.39957000  1
  C  343  1  0.73638400  0.26116400  0.41195100  1
  C  344  1  0.70009100  0.30191500  0.41865200  1
  C  347  1  0.77145200  0.22053900  0.40378600  1
  C  350  1  0.74859200  0.24295300  0.45137100  1
  C  351  1  0.85860300  0.36837700  0.41426900  1
  C  352  1  0.72836900  0.29723700  0.37403500  1
  C  356  1  0.62144300  0.14415800  0.41175200  1
  C  358  1  0.72065200  0.49851300  0.07734800  1
  C  359  1  0.74045200  0.53425300  0.07350700  1
  C  360  1  0.79614500  0.52967900  0.07219800  1
  C  361  1  0.77755000  0.49397600  0.07615100  1
  C  362  1  0.79750600  0.47621600  0.07780600  1
  C  363  1  0.83482900  0.49350000  0.07592600  1
  C  364  1  0.85203700  0.52845100  0.07157100  1
  C  365  1  0.83296300  0.54628900  0.06974700  1
  C  366  1  0.72374700  0.55499400  0.07223000  1
  C  367  1  0.68755000  0.54075600  0.07476100  1
  C  368  1  0.66691000  0.50531700  0.07865000  1
  C  369  1  0.68380200  0.48457600  0.07977500  1
  C  370  1  0.71944700  0.44532800  0.07042200  1
  C  371  1  0.70008000  0.40896800  0.07374000  1
  C  372  1  0.71384300  0.42727400  0.09322700  1
  C  373  1  0.73327400  0.46403600  0.09031800  1
  C  374  1  0.70955900  0.41717200  0.10415500  1
  C  375  1  0.72391500  0.44303500  0.11229500  1
  C  376  1  0.74369700  0.47987000  0.10976400  1
  C  377  1  0.74800900  0.48979300  0.09876300  1
  C  378  1  0.72014000  0.45264300  0.05922000  1
  C  379  1  0.70152900  0.42519800  0.05152200  1
  C  380  1  0.68310300  0.38939500  0.05512200  1
  C  381  1  0.68250000  0.38142300  0.06605800  1
  C  394  1  0.73779500  0.47540900  0.07858600  1
  C  395  1  0.69694200  0.39824600  0.08515900  1
  C  398  1  0.77862500  0.55123000  0.07053400  1
  C  401  1  0.75637800  0.50495300  0.11805700  1
  C  402  1  0.63075700  0.49070800  0.08098100  1
  C  403  1  0.70176900  0.43200800  0.04061000  1
  C  407  1  0.85464000  0.47717300  0.07836100  1
  C  409  1  0.50045400  0.22238700  0.74402200  1
  C  410  1  0.46478700  0.20648600  0.74012400  1
  C  411  1  0.46937400  0.26676500  0.73884200  1
  C  412  1  0.50499600  0.28383200  0.74285700  1
  C  413  1  0.52271200  0.32152300  0.74456000  1
  C  414  1  0.50546300  0.34158500  0.74265600  1
  C  415  1  0.47060200  0.32388900  0.73823900  1
  C  416  1  0.45281500  0.28700300  0.73636200  1
  C  417  1  0.44408500  0.16905300  0.73879600  1
  C  418  1  0.45828500  0.14706900  0.74133900  1
  C  419  1  0.49364600  0.16183700  0.74529600  1
  C  420  1  0.51435500  0.19945400  0.74646400  1
  C  421  1  0.55378100  0.27446800  0.73722000  1
  C  422  1  0.59006200  0.29138000  0.74061100  1
  C  423  1  0.57130400  0.28648700  0.76006100  1
  C  424  1  0.53462000  0.26928500  0.75708000  1
  C  425  1  0.58113000  0.29194100  0.77101800  1
  C  426  1  0.55506300  0.28018100  0.77910100  1
  C  427  1  0.51829000  0.26334800  0.77649800  1
  C  428  1  0.50866100  0.25809600  0.76546500  1
  C  429  1  0.54671800  0.26798400  0.72599900  1
  C  430  1  0.57433600  0.27685400  0.71836400  1
  C  431  1  0.61005000  0.29411200  0.72203500  1
  C  432  1  0.61777800  0.30140100  0.73299000  1
  C  445  1  0.52351700  0.26261700  0.74532100  1
  C  446  1  0.60051900  0.29875600  0.75205800  1
  C  449  1  0.44786200  0.22771300  0.73713100  1
  C  452  1  0.49291100  0.25047500  0.78472700  1
  C  453  1  0.50822700  0.14028300  0.74764200  1
  C  454  1  0.56779900  0.27024500  0.70743400  1
  C  458  1  0.52173300  0.37769300  0.74512600  1
  C  460  1  0.22167600  0.72096900  0.41145000  1
  C  461  1  0.20498300  0.74018100  0.40771700  1
  C  462  1  0.26473800  0.79612400  0.40571600  1
  C  463  1  0.28256800  0.77831200  0.40972300  1
  C  464  1  0.32034200  0.79889900  0.41118600  1
  C  465  1  0.33975200  0.83610600  0.40906600  1
  C  466  1  0.32131400  0.85245100  0.40460800  1
  C  467  1  0.28432700  0.83273300  0.40296000  1
  C  468  1  0.16735800  0.72325400  0.40702300  1
  C  469  1  0.14597800  0.68744100  0.41005400  1
  C  470  1  0.16157500  0.66718700  0.41364500  1
  C  471  1  0.19934300  0.68433200  0.41425000  1
  C  472  1  0.27358700  0.72019800  0.40424000  1
  C  473  1  0.29132900  0.70152400  0.40752200  1
  C  474  1  0.28775800  0.71613300  0.42699000  1
  C  475  1  0.26988800  0.73505700  0.42411300  1
  C  476  1  0.29412000  0.71233200  0.43791200  1
  C  477  1  0.28251700  0.72656200  0.44606300  1
  C  478  1  0.26496300  0.74589600  0.44356400  1
  C  479  1  0.25894300  0.74983000  0.43256000  1
  C  480  1  0.26621300  0.72021500  0.39306400  1
  C  481  1  0.27511400  0.70166800  0.38536600  1
  C  482  1  0.29320800  0.68391300  0.38892600  1
  C  483  1  0.30125300  0.68392700  0.39983700  1
  C  496  1  0.26205800  0.73870300  0.41240200  1
  C  497  1  0.29976700  0.69915900  0.41891600  1
  C  500  1  0.22550400  0.77804300  0.40437300  1
  C  503  1  0.25207300  0.75813700  0.45187200  1
  C  504  1  0.14045600  0.63161400  0.41668300  1
  C  505  1  0.26807200  0.70151000  0.37446900  1
  C  509  1  0.37586700  0.85667200  0.41145800  1
  C  511  1  0.27792300  0.50097000  0.07811200  1
  C  512  1  0.25868600  0.46505300  0.07439100  1
  C  513  1  0.20280900  0.46895300  0.07233400  1
  C  514  1  0.22063000  0.50459300  0.07634400  1
  C  515  1  0.20006000  0.52180500  0.07779000  1
  C  516  1  0.16286700  0.50404100  0.07565300  1
  C  517  1  0.14652600  0.46927300  0.07118500  1
  C  518  1  0.16621700  0.45196100  0.06956200  1
  C  519  1  0.27556600  0.44430800  0.07372400  1
  C  520  1  0.31137100  0.45871700  0.07676200  1
  C  521  1  0.33166300  0.49458600  0.08033000  1
  C  522  1  0.31455300  0.51524700  0.08091600  1
  C  523  1  0.27877900  0.55365600  0.07086400  1
  C  524  1  0.29747500  0.59008700  0.07412600  1
  C  525  1  0.28276700  0.57200700  0.09360500  1
  C  526  1  0.26385600  0.53519700  0.09074400  1
  C  527  1  0.28646000  0.58223300  0.10451700  1
  C  528  1  0.27212900  0.55645100  0.11268100  1
  C  529  1  0.25286900  0.51955700  0.11019000  1
  C  530  1  0.24902600  0.50952400  0.09919700  1
  C  531  1  0.27877100  0.54621200  0.05969400  1
  C  532  1  0.29736800  0.57362200  0.05198800  1
  C  533  1  0.31514800  0.60948500  0.05553200  1
  C  534  1  0.31510700  0.61757100  0.06643600  1
  C  547  1  0.26023200  0.52366400  0.07903600  1
  C  548  1  0.29980300  0.60094900  0.08551300  1
  C  551  1  0.22084500  0.44774700  0.07102400  1
  C  554  1  0.24043700  0.49449600  0.11849100  1
  C  555  1  0.36725200  0.50904100  0.08335900  1
  C  556  1  0.29753200  0.56668400  0.04109200  1
  C  560  1  0.14229900  0.51958100  0.07804800  1
  C  562  1  0.49789300  0.77714900  0.74471300  1
  C  563  1  0.53378000  0.79379700  0.74096600  1
  C  564  1  0.52994500  0.73401300  0.73902500  1
  C  565  1  0.49432000  0.71623200  0.74304700  1
  C  566  1  0.47712600  0.67847000  0.74454000  1
  C  567  1  0.49491200  0.65903300  0.74244400  1
  C  568  1  0.52967400  0.67741600  0.73797100  1
  C  569  1  0.54694500  0.71438700  0.73629100  1
  C  570  1  0.55447900  0.83141300  0.74023500  1
  C  571  1  0.54006300  0.85282900  0.74324200  1
  C  572  1  0.50423400  0.83728300  0.74685300  1
  C  573  1  0.48361100  0.79952200  0.74749000  1
  C  574  1  0.44518600  0.72517400  0.73754300  1
  C  575  1  0.40877900  0.70746400  0.74083100  1
  C  576  1  0.42700400  0.71124000  0.76030100  1
  C  577  1  0.46379100  0.72906100  0.75741600  1
  C  578  1  0.41687200  0.70498100  0.77122700  1
  C  579  1  0.44272200  0.71661800  0.77937300  1
  C  580  1  0.47959800  0.73411900  0.77686200  1
  C  581  1  0.48953200  0.74006000  0.76585800  1
  C  582  1  0.45254900  0.73239700  0.72635900  1
  C  583  1  0.42508500  0.72335200  0.71865400  1
  C  584  1  0.38924400  0.70527600  0.72222500  1
  C  585  1  0.38124000  0.69740800  0.73314500  1
  C  598  1  0.47523900  0.73677900  0.74570000  1
  C  599  1  0.39800400  0.69916700  0.75223100  1
  C  602  1  0.55110000  0.77323300  0.73764500  1
  C  605  1  0.50476700  0.74701700  0.78515000  1
  C  606  1  0.48978700  0.85843000  0.74987400  1
  C  607  1  0.43190900  0.73014100  0.70772600  1
  C  611  1  0.47936600  0.62294400  0.74487500  1
  C  613  1  0.48463200  0.73490700  0.86060400  1
  C  614  1  0.45805800  0.70837200  0.85399300  1
  C  615  1  0.46354000  0.70772900  0.84288100  1
  C  616  1  0.49567800  0.73387700  0.83794600  1
  C  617  1  0.52215100  0.76073600  0.84462500  1
  C  618  1  0.51682700  0.76121700  0.85581700  1
  C  621  1  0.50007200  0.73315900  0.82655000  1
  C  622  1  0.49067900  0.70061000  0.82120000  1
  C  623  1  0.49188200  0.69892900  0.80992300  1
  C  624  1  0.50235100  0.72966300  0.80355800  1
  C  625  1  0.51240700  0.76245000  0.80883200  1
  C  626  1  0.51148300  0.76417500  0.82014500  1
  C  635  1  0.24889300  0.51423200  0.19397800  1
  C  636  1  0.24889300  0.54081700  0.18738000  1
  C  637  1  0.24273100  0.53536500  0.17626700  1
  C  638  1  0.23672900  0.50324300  0.17131700  1
  C  639  1  0.23716800  0.47676200  0.17797900  1
  C  640  1  0.24300300  0.48205400  0.18917200  1
  C  643  1  0.23154100  0.49887500  0.15992300  1
  C  644  1  0.20827900  0.50820400  0.15461100  1
  C  645  1  0.20532300  0.50705300  0.14333700  1
  C  646  1  0.22563000  0.49672200  0.13694100  1
  C  647  1  0.24842900  0.48668100  0.14218000  1
  C  648  1  0.25112700  0.48751800  0.15348600  1
  C  657  1  0.26392300  0.74980400  0.52730900  1
  C  658  1  0.29039600  0.74965100  0.52069700  1
  C  659  1  0.29109100  0.75584200  0.50958800  1
  C  660  1  0.26506800  0.76203600  0.50465900  1
  C  661  1  0.23830000  0.76181900  0.51134300  1
  C  662  1  0.23778600  0.75597700  0.52253300  1
  C  665  1  0.26582900  0.76720300  0.49326500  1
  C  666  1  0.29842300  0.79027200  0.48792300  1
  C  667  1  0.30013100  0.79319900  0.47664600  1
  C  668  1  0.26938900  0.77301600  0.47027600  1
  C  669  1  0.23655000  0.75042500  0.47554500  1
  C  670  1  0.23479400  0.74775600  0.48685700  1
  C  679  1  0.51414000  0.26297700  0.86016300  1
  C  680  1  0.54060900  0.28955100  0.85353500  1
  C  681  1  0.53502100  0.29015100  0.84242700  1
  C  682  1  0.50285400  0.26396000  0.83751500  1
  C  683  1  0.47645100  0.23711700  0.84421500  1
  C  684  1  0.48188600  0.23667000  0.85540100  1
  C  687  1  0.49833700  0.26462600  0.82612300  1
  C  688  1  0.50760500  0.29713100  0.82076600  1
  C  689  1  0.50619800  0.29873200  0.80949000  1
  C  690  1  0.49567000  0.26796400  0.80313500  1
  C  691  1  0.48572700  0.23522100  0.80841900  1
  C  692  1  0.48681100  0.23356400  0.81973000  1
  C  701  1  0.74781000  0.48511800  0.19356000  1
  C  702  1  0.74813500  0.45868900  0.18696300  1
  C  703  1  0.75434000  0.46420000  0.17585700  1
  C  704  1  0.76003300  0.49621100  0.17090700  1
  C  705  1  0.75928300  0.52253700  0.17756100  1
  C  706  1  0.75340800  0.51719000  0.18875400  1
  C  709  1  0.76521600  0.50062000  0.15951300  1
  C  710  1  0.78867800  0.49156000  0.15419300  1
  C  711  1  0.79162500  0.49271500  0.14291900  1
  C  712  1  0.77113700  0.50281800  0.13652300  1
  C  713  1  0.74810100  0.51255000  0.14175400  1
  C  714  1  0.74538400  0.51167300  0.15306800  1
  C  723  1  0.73591800  0.25113300  0.52681900  1
  C  724  1  0.70926600  0.25089800  0.52019800  1
  C  725  1  0.70868600  0.24474600  0.50908800  1
  C  726  1  0.73501300  0.23900700  0.50416400  1
  C  727  1  0.76197100  0.23964400  0.51085500  1
  C  728  1  0.76238500  0.24546400  0.52204400  1
  C  731  1  0.73439200  0.23391800  0.49276700  1
  C  732  1  0.70193200  0.21059700  0.48740000  1
  C  733  1  0.70035600  0.20766900  0.47612300  1
  C  734  1  0.73110000  0.22807000  0.46977400  1
  C  735  1  0.76380300  0.25095100  0.47506700  1
  C  736  1  0.76543500  0.25362500  0.48637900  1
  C  745  1  0.50012100  0.58288300  0.91331600  1
  C  746  1  0.53309200  0.58346600  0.91311100  1
  C  747  1  0.53401000  0.55138800  0.91281800  1
  C  748  1  0.50189400  0.51794800  0.91277200  1
  C  749  1  0.46885900  0.51763900  0.91261300  1
  C  750  1  0.46789000  0.54976200  0.91289800  1
  C  753  1  0.50308800  0.48571100  0.91381500  1
  C  754  1  0.52683600  0.47929800  0.90758800  1
  C  755  1  0.52832700  0.44763700  0.90890200  1
  C  756  1  0.50630800  0.42200800  0.91659400  1
  C  757  1  0.48285300  0.42831800  0.92287800  1
  C  758  1  0.48137600  0.45986100  0.92154900  1
  C  767  1  0.08139400  0.49882400  0.24670600  1
  C  768  1  0.04897700  0.46587400  0.24653800  1
  C  769  1  0.01600800  0.46501100  0.24626000  1
  C  770  1  0.01473700  0.49715400  0.24614400  1
  C  771  1  0.04748700  0.53016100  0.24593900  1
  C  772  1  0.08055200  0.53107700  0.24624500  1
  C  775  1  0.98133300  0.49603100  0.24716000  1
  C  776  1  0.95113300  0.47219000  0.24096100  1
  C  777  1  0.91800200  0.47075300  0.24226100  1
  C  778  1  0.91442200  0.49286400  0.24992500  1
  C  779  1  0.94423800  0.51644400  0.25617200  1
  C  780  1  0.97724500  0.51788800  0.25485200  1
  C  789  1  0.41607600  0.91752200  0.57995400  1
  C  790  1  0.41551900  0.94992600  0.57977600  1
  C  791  1  0.44761000  0.98291500  0.57948400  1
  C  792  1  0.48104200  0.98421900  0.57941300  1
  C  793  1  0.48132900  0.95148300  0.57924800  1
  C  794  1  0.44919500  0.91840400  0.57955100  1
  C  797  1  0.51329100  0.01764400  0.58044700  1
  C  798  1  0.51966900  0.04783000  0.57423700  1
  C  799  1  0.55135400  0.08096700  0.57553900  1
  C  800  1  0.57704000  0.08454800  0.58320500  1
  C  801  1  0.57074800  0.05477200  0.58948200  1
  C  802  1  0.53918600  0.02176700  0.58816200  1
  C  811  1  0.92029300  0.41355300  0.41738700  1
  C  812  1  0.95395700  0.41559300  0.41742600  1
  C  813  1  0.98563300  0.44895400  0.41777300  1
  C  814  1  0.98429400  0.48105300  0.41805100  1
  C  815  1  0.95037400  0.47877000  0.41837800  1
  C  816  1  0.91865400  0.44539200  0.41803700  1
  C  819  1  0.01625500  0.51468300  0.41711800  1
  C  820  1  0.04683200  0.52314200  0.42342100  1
  C  821  1  0.07858500  0.55624200  0.42222700  1
  C  822  1  0.08040200  0.58131500  0.41459200  1
  C  823  1  0.05015300  0.57296700  0.40825400  1
  C  824  1  0.01848600  0.53998800  0.40946700  1
  C  833  1  0.58545700  0.50721300  0.08388900  1
  C  834  1  0.58332400  0.53878000  0.08375300  1
  C  835  1  0.54993800  0.53702900  0.08414700  1
  C  836  1  0.51790400  0.50357000  0.08464500  1
  C  837  1  0.52030000  0.47201400  0.08515100  1
  C  838  1  0.55371000  0.47374400  0.08477300  1
  C  841  1  0.48419200  0.50175300  0.08377700  1
  C  842  1  0.47597200  0.52428200  0.08995600  1
  C  843  1  0.44282600  0.52285700  0.08879900  1
  C  844  1  0.41743700  0.49905400  0.08132600  1
  C  845  1  0.42552600  0.47671600  0.07510600  1
  C  846  1  0.45856200  0.47812400  0.07628800  1
  C  855  1  0.49169700  0.07849400  0.75057500  1
  C  856  1  0.46012300  0.04479300  0.75046100  1
  C  857  1  0.46188600  0.01316100  0.75080800  1
  C  858  1  0.49534500  0.01458000  0.75127800  1
  C  859  1  0.52690600  0.04852800  0.75177400  1
  C  860  1  0.52517500  0.08020800  0.75141300  1
  C  863  1  0.49715700  0.98268700  0.75038500  1
  C  864  1  0.47467700  0.95192700  0.75656900  1
  C  865  1  0.47610000  0.92021200  0.75538600  1
  C  866  1  0.49981000  0.91862000  0.74788000  1
  C  867  1  0.52210900  0.94906700  0.74166600  1
  C  868  1  0.52072100  0.98069600  0.74287000  1
  C  877  1  0.48938900  0.91307900  0.91468800  1
  C  878  1  0.51952400  0.94169500  0.90972900  1
  C  879  1  0.52212200  0.97534700  0.90862600  1
  C  880  1  0.49465500  0.98122100  0.91250600  1
  C  881  1  0.46394600  0.95204700  0.91718600  1
  C  882  1  0.46136900  0.91836600  0.91832500  1
  C  885  1  0.49912400  0.01623000  0.91258400  1
  C  886  1  0.53073900  0.04560600  0.91678700  1
  C  887  1  0.53357800  0.07935600  0.91808600  1
  C  888  1  0.50491100  0.08450200  0.91507900  1
  C  889  1  0.47383300  0.05568200  0.91057900  1
  C  890  1  0.47094900  0.02195100  0.90933700  1
  C  899  1  0.42231300  0.50948200  0.24806900  1
  C  900  1  0.42078700  0.47935400  0.24310300  1
  C  901  1  0.45184300  0.47676600  0.24199000  1
  C  902  1  0.48519100  0.50423800  0.24586200  1
  C  903  1  0.48673500  0.53494900  0.25054400  1
  C  904  1  0.45563200  0.53752800  0.25168900  1
  C  907  1  0.51573000  0.49976200  0.24594500  1
  C  908  1  0.51347700  0.46814800  0.25015200  1
  C  909  1  0.54438200  0.46529700  0.25145100  1
  C  910  1  0.57819900  0.49394900  0.24843800  1
  C  911  1  0.58046700  0.52503500  0.24393900  1
  C  912  1  0.54962400  0.52792100  0.24269000  1
  C  921  1  0.08579800  0.57670400  0.58142900  1
  C  922  1  0.05723200  0.57822500  0.57643800  1
  C  923  1  0.02360300  0.54716400  0.57530700  1
  C  924  1  0.01771800  0.51381200  0.57917900  1
  C  925  1  0.04687500  0.51226700  0.58386700  1
  C  926  1  0.08056100  0.54336800  0.58501800  1
  C  929  1  0.98270400  0.48326900  0.57925000  1
  C  930  1  0.95332700  0.48550000  0.58345500  1
  C  931  1  0.91954200  0.45460800  0.58471900  1
  C  932  1  0.91441800  0.42080100  0.58171400  1
  C  933  1  0.94324000  0.41853500  0.57722000  1
  C  934  1  0.97698500  0.44938100  0.57599600  1
  C  943  1  0.57785900  0.08495700  0.41819900  1
  C  944  1  0.57836900  0.05587400  0.42320000  1
  C  945  1  0.54664900  0.02282200  0.42440700  1
  C  946  1  0.51361300  0.01804100  0.42061600  1
  C  947  1  0.51310100  0.04776000  0.41594300  1
  C  948  1  0.54486100  0.08083800  0.41470000  1
  C  951  1  0.48236300  0.98348800  0.42052900  1
  C  952  1  0.48357200  0.95356000  0.41632100  1
  C  953  1  0.45203500  0.92038400  0.41492400  1
  C  954  1  0.41856600  0.91635100  0.41782200  1
  C  955  1  0.41729500  0.94570500  0.42232500  1
  C  956  1  0.44879200  0.97885200  0.42368800  1
  C  965  1  0.91372000  0.49264700  0.08487000  1
  C  966  1  0.94278000  0.52224300  0.08988400  1
  C  967  1  0.97587000  0.52365200  0.09107300  1
  C  968  1  0.98076300  0.49552500  0.08722400  1
  C  969  1  0.95111300  0.46534200  0.08250700  1
  C  970  1  0.91799100  0.46394100  0.08128600  1
  C  973  1  0.01534900  0.49891800  0.08714400  1
  C  974  1  0.04526500  0.53015200  0.08297300  1
  C  975  1  0.07848300  0.53188000  0.08156700  1
  C  976  1  0.08255400  0.50242400  0.08441200  1
  C  977  1  0.05323900  0.47174100  0.08890400  1
  C  978  1  0.02004400  0.46998500  0.09026200  1
  C  987  1  0.50616800  0.42123800  0.75163300  1
  C  988  1  0.47651300  0.42065500  0.75662000  1
  C  989  1  0.47510500  0.45233100  0.75783200  1
  C  990  1  0.50329200  0.48539300  0.75403100  1
  C  991  1  0.53353000  0.48596500  0.74934000  1
  C  992  1  0.53494400  0.45425400  0.74810500  1
  C  995  1  0.49990700  0.51659400  0.75395000  1
  C  996  1  0.46871800  0.51530900  0.74975700  1
  C  997  1  0.46700000  0.54681100  0.74837100  1
  C  998  1  0.49639200  0.58031300  0.75127100  1
  C  999  1  0.52705100  0.58163800  0.75576800  1
  C  1000  1  0.52879500  0.55018800  0.75711500  1
  C  1009  1  0.40588100  0.66121000  0.97460800  1
  C  1010  1  0.39158200  0.62454700  0.97696600  1
  C  1011  1  0.38142500  0.61156200  0.98751600  1
  C  1012  1  0.38403500  0.63467000  0.99598800  1
  C  1013  1  0.39856100  0.67150400  0.99358700  1
  C  1014  1  0.40950800  0.68466100  0.98306700  1
  C  1017  1  0.37018500  0.62057200  0.00641800  1
  C  1018  1  0.37973300  0.59754100  0.01176200  1
  C  1019  1  0.36538100  0.58297300  0.02191900  1
  C  1020  1  0.34014700  0.58998800  0.02691700  1
  C  1021  1  0.33049900  0.61298900  0.02163700  1
  C  1022  1  0.34541900  0.62814700  0.01157700  1
  C  1031  1  0.25406000  0.59311500  0.30797100  1
  C  1032  1  0.23171500  0.60743300  0.31033400  1
  C  1033  1  0.22900200  0.61770100  0.32088000  1
  C  1034  1  0.24948200  0.61505000  0.32935100  1
  C  1035  1  0.27174500  0.60047900  0.32694600  1
  C  1036  1  0.27393700  0.58953800  0.31642500  1
  C  1039  1  0.24924900  0.62889100  0.33978200  1
  C  1040  1  0.21668000  0.61936400  0.34512300  1
  C  1041  1  0.21648300  0.63371200  0.35528500  1
  C  1042  1  0.24874200  0.65893400  0.36028500  1
  C  1043  1  0.28138200  0.66853800  0.35500200  1
  C  1044  1  0.28160200  0.65362900  0.34493800  1
  C  1053  1  0.33753600  0.74493200  0.64135700  1
  C  1054  1  0.37424100  0.76708900  0.64371400  1
  C  1055  1  0.38720800  0.76978900  0.65426100  1
  C  1056  1  0.36404800  0.74936600  0.66273200  1
  C  1057  1  0.32719300  0.72722200  0.66033100  1
  C  1058  1  0.31407100  0.72509100  0.64981000  1
  C  1061  1  0.37811900  0.74948100  0.67315500  1
  C  1062  1  0.40134100  0.78199000  0.67849700  1
  C  1063  1  0.41589100  0.78206500  0.68864900  1
  C  1064  1  0.40870000  0.74973200  0.69363200  1
  C  1065  1  0.38547600  0.71715400  0.68834800  1
  C  1066  1  0.37035100  0.71706200  0.67829600  1
  C  1075  1  0.59211800  0.33863000  0.97413000  1
  C  1076  1  0.60687200  0.37535700  0.97649100  1
  C  1077  1  0.61734300  0.38831400  0.98703100  1
  C  1078  1  0.61460400  0.36511300  0.99549100  1
  C  1079  1  0.59969200  0.32823600  0.99308400  1
  C  1080  1  0.58847600  0.31512300  0.98257400  1
  C  1083  1  0.62871300  0.37914200  0.00591200  1
  C  1084  1  0.61960200  0.40244500  0.01127900  1
  C  1085  1  0.63416800  0.41690400  0.02142800  1
  C  1086  1  0.65921900  0.40952700  0.02638600  1
  C  1087  1  0.66842200  0.38624300  0.02107500  1
  C  1088  1  0.65328300  0.37119200  0.01102200  1
  C  1097  1  0.74485500  0.40652300  0.30750000  1
  C  1098  1  0.76677900  0.39174100  0.30988500  1
  C  1099  1  0.76928600  0.38139400  0.32044000  1
  C  1100  1  0.74887300  0.38428200  0.32888800  1
  C  1101  1  0.72701000  0.39929400  0.32646000  1
  C  1102  1  0.72513100  0.41043000  0.31593700  1
  C  1105  1  0.74874400  0.37023200  0.33931700  1
  C  1106  1  0.78113100  0.37928500  0.34469600  1
  C  1107  1  0.78096700  0.36474500  0.35485700  1
  C  1108  1  0.74850300  0.33980500  0.35981900  1
  C  1109  1  0.71604300  0.33064400  0.35449300  1
  C  1110  1  0.71619200  0.34575600  0.34443200  1
  C  1119  1  0.66027700  0.25422000  0.64076800  1
  C  1120  1  0.62355400  0.23235100  0.64314500  1
  C  1121  1  0.61068900  0.22987400  0.65369700  1
  C  1122  1  0.63401000  0.25015200  0.66215800  1
  C  1123  1  0.67090000  0.27193900  0.65973800  1
  C  1124  1  0.68390900  0.27388000  0.64921200  1
  C  1127  1  0.62011100  0.25020000  0.67259500  1
  C  1128  1  0.59674900  0.21777100  0.67795300  1
  C  1129  1  0.58244100  0.21786100  0.68813000  1
  C  1130  1  0.59005700  0.25029200  0.69313400  1
  C  1131  1  0.61337300  0.28279300  0.68783000  1
  C  1132  1  0.62826400  0.28271600  0.67774900  1
  N  633  1  0.50014000  0.72507300  0.79293200  1
  N  634  1  0.47578500  0.73451700  0.87082100  1
  N  655  1  0.22322000  0.49904800  0.12631800  1
  N  656  1  0.25737400  0.52305200  0.20419100  1
  N  677  1  0.27399600  0.77541800  0.45965200  1
  N  678  1  0.26431600  0.74140300  0.53753100  1
  N  699  1  0.49753800  0.27244100  0.79250400  1
  N  700  1  0.52303800  0.26341900  0.87037900  1
  N  721  1  0.77354600  0.50046100  0.12590800  1
  N  722  1  0.73925400  0.47622000  0.20376800  1
  N  743  1  0.72662000  0.22558100  0.45914300  1
  N  744  1  0.73551200  0.25968200  0.53702800  1
  N  765  1  0.50332900  0.39032400  0.91774200  1
  N  766  1  0.50199300  0.61387400  0.91505500  1
  N  787  1  0.88571200  0.49583500  0.25107200  1
  N  788  1  0.11050000  0.49693000  0.24844100  1
  N  809  1  0.60869100  0.11328800  0.58436600  1
  N  810  1  0.38509400  0.88844500  0.58174000  1
  N  831  1  0.10805800  0.61370500  0.41331800  1
  N  832  1  0.89237300  0.38153500  0.41569000  1
  N  853  1  0.38505800  0.49435700  0.08006400  1
  N  854  1  0.61748100  0.51128800  0.08223400  1
  N  875  1  0.50450300  0.89094100  0.74659600  1
  N  876  1  0.48761500  0.10644900  0.74893000  1
  N  897  1  0.50296000  0.11323500  0.91752900  1
  N  898  1  0.49214700  0.88478100  0.91712100  1
  N  919  1  0.60888400  0.49595700  0.25092300  1
  N  920  1  0.39126300  0.50670200  0.25052400  1
  N  941  1  0.88568800  0.39010500  0.58416200  1
  N  942  1  0.11415400  0.60773100  0.58385100  1
  N  963  1  0.38748400  0.88834400  0.41520700  1
  N  964  1  0.60928400  0.11256000  0.41562700  1
  N  985  1  0.11065100  0.49949200  0.08180800  1
  N  986  1  0.88613700  0.49651400  0.08231400  1
  N  1007  1  0.49943600  0.61136900  0.74864100  1
  N  1008  1  0.50231000  0.38981400  0.74904100  1
  N  1029  1  0.32833100  0.57638000  0.03667200  1
  N  1030  1  0.40863300  0.67058500  0.96433100  1
  N  1051  1  0.24697600  0.67071200  0.37004500  1
  N  1052  1  0.26061500  0.59030000  0.29769300  1
  N  1073  1  0.42229900  0.75138700  0.70337600  1
  N  1074  1  0.32825400  0.73835000  0.63107400  1
  N  1095  1  0.67120300  0.42303800  0.03614200  1
  N  1096  1  0.58928800  0.32931500  0.96384500  1
  N  1117  1  0.74996800  0.32782300  0.36957600  1
  N  1118  1  0.73835900  0.40937300  0.29721800  1
  N  1139  1  0.57677700  0.24876600  0.70291900  1
  N  1140  1  0.66964700  0.26073800  0.63048800  1
