# generated using pymatgen
data_H24C47(N2O)4
_symmetry_space_group_name_H-M   'P 1'
_cell_length_a   33.79910000
_cell_length_b   65.61390000
_cell_length_c   65.61410000
_cell_angle_alpha   89.99980000
_cell_angle_beta   90.00000000
_cell_angle_gamma   89.99840000
_symmetry_Int_Tables_number   1
_chemical_formula_structural   H24C47(N2O)4
_chemical_formula_sum   'H384 C752 N128 O64'
_cell_volume   145511.78372954
_cell_formula_units_Z   16
loop_
 _symmetry_equiv_pos_site_id
 _symmetry_equiv_pos_as_xyz
  1  'x, y, z'
loop_
 _atom_site_type_symbol
 _atom_site_label
 _atom_site_symmetry_multiplicity
 _atom_site_fract_x
 _atom_site_fract_y
 _atom_site_fract_z
 _atom_site_occupancy
  H  25  1  0.86995500  0.67491100  0.12092300  1
  H  26  1  0.93164600  0.65851300  0.12363500  1
  H  27  1  0.07295000  0.65843200  0.12371300  1
  H  28  1  0.13473900  0.67478200  0.12104800  1
  H  29  1  0.08168700  0.72508400  0.09264000  1
  H  30  1  0.92319600  0.72510000  0.09240300  1
  H  31  1  0.00047600  0.68636700  0.06458300  1
  H  32  1  0.00188500  0.72731100  0.01522600  1
  H  33  1  0.00426400  0.75527000  0.03845500  1
  H  34  1  0.00228000  0.71845900  0.13906700  1
  H  35  1  0.00211800  0.78408800  0.10515200  1
  H  36  1  0.00185500  0.78223400  0.13973400  1
  H  39  1  0.00224300  0.66837900  0.13158100  1
  H  40  1  0.00234600  0.65744300  0.10680400  1
  H  42  1  0.02906600  0.76464200  0.07454700  1
  H  43  1  0.97644600  0.76428100  0.07421000  1
  H  72  1  0.86990800  0.39385000  0.81031800  1
  H  73  1  0.93159600  0.41024700  0.80760200  1
  H  74  1  0.07289800  0.41033500  0.80752300  1
  H  75  1  0.13468600  0.39398700  0.81017900  1
  H  76  1  0.08165800  0.34368000  0.83859100  1
  H  77  1  0.92317000  0.34366000  0.83883200  1
  H  78  1  0.00043200  0.38239700  0.86665200  1
  H  79  1  0.00183100  0.34145100  0.91600900  1
  H  80  1  0.00421500  0.31349700  0.89278200  1
  H  81  1  0.00224900  0.35029700  0.79216600  1
  H  82  1  0.00207700  0.28467300  0.82609100  1
  H  83  1  0.00180500  0.28651900  0.79149900  1
  H  86  1  0.00218400  0.40038700  0.79965200  1
  H  87  1  0.00230600  0.41131900  0.82443200  1
  H  89  1  0.02902200  0.30411800  0.85669400  1
  H  90  1  0.97640200  0.30448800  0.85702900  1
  H  119  1  0.86992300  0.87908900  0.60614800  1
  H  120  1  0.93161400  0.87637100  0.58975200  1
  H  121  1  0.07292100  0.87628600  0.58967000  1
  H  122  1  0.13470100  0.87893700  0.60602000  1
  H  123  1  0.08167100  0.90734900  0.65632500  1
  H  124  1  0.92318700  0.90759500  0.65634300  1
  H  125  1  0.00045000  0.93542900  0.61760900  1
  H  126  1  0.00190500  0.98477400  0.65857200  1
  H  127  1  0.00425900  0.96153800  0.68651800  1
  H  128  1  0.00226600  0.86092900  0.64970300  1
  H  129  1  0.00210100  0.89485000  0.71532700  1
  H  130  1  0.00183700  0.86025800  0.71348200  1
  H  133  1  0.00221300  0.86841700  0.59961900  1
  H  134  1  0.00232100  0.89319400  0.58867900  1
  H  136  1  0.02904000  0.92545300  0.69588600  1
  H  137  1  0.97641700  0.92578500  0.69551700  1
  H  166  1  0.86989600  0.18967700  0.32509600  1
  H  167  1  0.93158700  0.19238700  0.34149100  1
  H  168  1  0.07290200  0.19248700  0.34155800  1
  H  169  1  0.13467500  0.18981900  0.32520900  1
  H  170  1  0.08162600  0.16140500  0.27491000  1
  H  171  1  0.92314600  0.16116400  0.27490000  1
  H  172  1  0.00040200  0.13334200  0.31363100  1
  H  173  1  0.00185800  0.08398700  0.27268100  1
  H  174  1  0.00423900  0.10721700  0.24472800  1
  H  175  1  0.00223100  0.20783900  0.28151400  1
  H  176  1  0.00206500  0.17389200  0.21590300  1
  H  177  1  0.00179300  0.20847400  0.21773400  1
  H  180  1  0.00219500  0.20034800  0.33161800  1
  H  181  1  0.00228400  0.17557200  0.34255400  1
  H  183  1  0.02901400  0.14329900  0.23535700  1
  H  184  1  0.97639000  0.14296600  0.23571900  1
  H  213  1  0.13461200  0.67475600  0.80998900  1
  H  214  1  0.07303300  0.65819900  0.80731300  1
  H  215  1  0.93131800  0.65816200  0.80725800  1
  H  216  1  0.86969500  0.67471500  0.80991300  1
  H  217  1  0.92309000  0.72449600  0.83902800  1
  H  218  1  0.08116700  0.72441700  0.83930100  1
  H  219  1  0.99722800  0.68535200  0.86847400  1
  H  220  1  0.99573400  0.72879300  0.91602900  1
  H  221  1  0.00176600  0.75530600  0.89247900  1
  H  222  1  0.00235400  0.71813700  0.79248400  1
  H  223  1  0.00292700  0.78314800  0.82778800  1
  H  224  1  0.00494500  0.78271200  0.79368300  1
  H  227  1  0.00228400  0.66802300  0.79965600  1
  H  228  1  0.00209500  0.65679300  0.82429300  1
  H  230  1  0.97694600  0.76361400  0.85748600  1
  H  231  1  0.02975000  0.76318200  0.85739600  1
  H  260  1  0.13459400  0.39401000  0.12123000  1
  H  261  1  0.07300600  0.41056400  0.12392100  1
  H  262  1  0.93128800  0.41061000  0.12397300  1
  H  263  1  0.86966500  0.39406400  0.12132000  1
  H  264  1  0.92304500  0.34427200  0.09221100  1
  H  265  1  0.08113000  0.34434500  0.09193700  1
  H  266  1  0.99718300  0.38341600  0.06278600  1
  H  267  1  0.99568000  0.33999600  0.01521500  1
  H  268  1  0.00172200  0.31347100  0.03875300  1
  H  269  1  0.00219200  0.35062400  0.13875100  1
  H  270  1  0.00264500  0.28564200  0.10333800  1
  H  271  1  0.00266800  0.28587900  0.13701200  1
  H  274  1  0.00225200  0.40074700  0.13158000  1
  H  275  1  0.00206500  0.41197000  0.10694000  1
  H  277  1  0.97692300  0.30515700  0.07374700  1
  H  278  1  0.02973400  0.30559100  0.07381100  1
  H  307  1  0.13465400  0.87876900  0.32524600  1
  H  308  1  0.07306900  0.87607800  0.34180100  1
  H  309  1  0.93134400  0.87603000  0.34184600  1
  H  310  1  0.86971900  0.87868100  0.32530000  1
  H  311  1  0.92309900  0.90779100  0.27550700  1
  H  312  1  0.08118000  0.90806700  0.27558300  1
  H  313  1  0.99721600  0.93721700  0.31465100  1
  H  314  1  0.99571000  0.98478500  0.27122500  1
  H  315  1  0.00182300  0.96124700  0.24470500  1
  H  316  1  0.00220700  0.86124800  0.28185900  1
  H  317  1  0.00260100  0.89666700  0.21687900  1
  H  318  1  0.00164500  0.86301200  0.21711100  1
  H  321  1  0.00230300  0.86842200  0.33199300  1
  H  322  1  0.00212700  0.89306900  0.34320100  1
  H  324  1  0.97698800  0.92625200  0.23639500  1
  H  325  1  0.02980100  0.92619200  0.23682800  1
  H  354  1  0.13459900  0.19001700  0.60599800  1
  H  355  1  0.07300600  0.19269500  0.58943900  1
  H  356  1  0.93129700  0.19273200  0.58939300  1
  H  357  1  0.86966800  0.19007200  0.60594000  1
  H  358  1  0.92307500  0.16096900  0.65573300  1
  H  359  1  0.08115800  0.16070100  0.65565200  1
  H  360  1  0.99722200  0.13152400  0.61658900  1
  H  361  1  0.99564500  0.08397200  0.66003400  1
  H  362  1  0.00176300  0.10752200  0.68654400  1
  H  363  1  0.00205000  0.20751600  0.64937100  1
  H  364  1  0.00231200  0.17219900  0.71438000  1
  H  365  1  0.99926300  0.20624800  0.71395200  1
  H  368  1  0.00226200  0.20034100  0.59925500  1
  H  369  1  0.00208000  0.17570100  0.58803200  1
  H  371  1  0.97696100  0.14254400  0.69484600  1
  H  372  1  0.02976600  0.14256900  0.69442000  1
  H  401  1  0.36750100  0.17309900  0.61639200  1
  H  402  1  0.43045800  0.15821000  0.62335000  1
  H  403  1  0.57412200  0.15811900  0.62339200  1
  H  404  1  0.63715000  0.17298000  0.61646400  1
  H  405  1  0.58092700  0.22464000  0.59207900  1
  H  406  1  0.42390500  0.22462400  0.59179800  1
  H  407  1  0.50032700  0.18611900  0.56501700  1
  H  408  1  0.50194500  0.22703100  0.51560000  1
  H  409  1  0.50429500  0.25497200  0.53878500  1
  H  410  1  0.50226200  0.21866400  0.63950400  1
  H  411  1  0.50207300  0.28406300  0.60511200  1
  H  412  1  0.50178600  0.28246100  0.63967200  1
  H  415  1  0.50224100  0.16824300  0.63265500  1
  H  416  1  0.50231500  0.15767500  0.60776000  1
  H  418  1  0.52904700  0.26442100  0.57471300  1
  H  419  1  0.47641200  0.26405700  0.57437500  1
  H  448  1  0.36754800  0.89566600  0.31484300  1
  H  449  1  0.43050300  0.91055500  0.30789000  1
  H  450  1  0.57415700  0.91063900  0.30782800  1
  H  451  1  0.63719500  0.89578900  0.31477100  1
  H  452  1  0.58098000  0.84412800  0.33916700  1
  H  453  1  0.42395200  0.84413800  0.33943800  1
  H  454  1  0.50036200  0.88264400  0.36621800  1
  H  455  1  0.50196600  0.84173000  0.41563400  1
  H  456  1  0.50432100  0.81379300  0.39245200  1
  H  457  1  0.50230900  0.85009700  0.29173100  1
  H  458  1  0.50210500  0.78469800  0.32612600  1
  H  459  1  0.50181500  0.78630200  0.29157500  1
  H  462  1  0.50228300  0.90052200  0.29858100  1
  H  463  1  0.50235400  0.91108800  0.32347800  1
  H  465  1  0.52907900  0.80433700  0.35652500  1
  H  466  1  0.47644200  0.80471000  0.35686200  1
  H  495  1  0.36748000  0.38361100  0.10433500  1
  H  496  1  0.43044000  0.37664200  0.08945100  1
  H  497  1  0.57410700  0.37660500  0.08936200  1
  H  498  1  0.63713200  0.38355100  0.10421300  1
  H  499  1  0.58090300  0.40793800  0.15587600  1
  H  500  1  0.42389000  0.40820900  0.15586200  1
  H  501  1  0.50030000  0.43499600  0.11736100  1
  H  502  1  0.50196300  0.48440000  0.15829100  1
  H  503  1  0.50428900  0.46120900  0.18622300  1
  H  504  1  0.50224100  0.36049500  0.14990800  1
  H  505  1  0.50205500  0.39488700  0.21529900  1
  H  506  1  0.50176800  0.36033400  0.21370200  1
  H  509  1  0.50222300  0.36734600  0.09948300  1
  H  510  1  0.50229700  0.39224000  0.08891100  1
  H  512  1  0.52901700  0.42528500  0.19566400  1
  H  513  1  0.47638300  0.42561900  0.19529600  1
  H  542  1  0.36751900  0.68514800  0.82690000  1
  H  543  1  0.43047300  0.69210600  0.84179200  1
  H  544  1  0.57414800  0.69214500  0.84187300  1
  H  545  1  0.63716800  0.68520800  0.82701400  1
  H  546  1  0.58093300  0.66083500  0.77535000  1
  H  547  1  0.42392800  0.66056000  0.77537300  1
  H  548  1  0.50033600  0.63377000  0.81387600  1
  H  549  1  0.50199600  0.58436300  0.77295200  1
  H  550  1  0.50434200  0.60755300  0.74501700  1
  H  551  1  0.50225900  0.70826600  0.78134400  1
  H  552  1  0.50209900  0.67388600  0.71593800  1
  H  553  1  0.50183900  0.70845400  0.71754700  1
  H  556  1  0.50225300  0.70141300  0.83175600  1
  H  557  1  0.50234500  0.67651700  0.84232400  1
  H  559  1  0.52906400  0.64348200  0.73557500  1
  H  560  1  0.47642700  0.64314300  0.73593800  1
  H  589  1  0.63709100  0.17289100  0.31455600  1
  H  590  1  0.57419600  0.15787100  0.30762300  1
  H  591  1  0.43005600  0.15782300  0.30761700  1
  H  592  1  0.36713400  0.17283400  0.31456200  1
  H  593  1  0.42378600  0.22404300  0.33959600  1
  H  594  1  0.58037300  0.22395000  0.33987700  1
  H  595  1  0.49718800  0.18510900  0.36802300  1
  H  596  1  0.49575000  0.22852800  0.41562900  1
  H  597  1  0.50175300  0.25501100  0.39214000  1
  H  598  1  0.50217600  0.21824300  0.29208800  1
  H  599  1  0.50260800  0.28307400  0.32782900  1
  H  600  1  0.50234500  0.28298900  0.29416200  1
  H  603  1  0.50222600  0.16788800  0.29857800  1
  H  604  1  0.50205500  0.15702100  0.32333800  1
  H  606  1  0.47690600  0.26338300  0.35728000  1
  H  607  1  0.52973300  0.26297300  0.35721000  1
  H  636  1  0.63712400  0.89587000  0.61668500  1
  H  637  1  0.57422500  0.91088900  0.62362300  1
  H  638  1  0.43008500  0.91094300  0.62363300  1
  H  639  1  0.36716400  0.89593700  0.61667800  1
  H  640  1  0.42381000  0.84472900  0.59164200  1
  H  641  1  0.58040000  0.84480800  0.59136200  1
  H  642  1  0.49720600  0.88365700  0.56323500  1
  H  643  1  0.49578000  0.84025500  0.51561600  1
  H  644  1  0.50177700  0.81376200  0.53910200  1
  H  645  1  0.50240100  0.85051600  0.63916400  1
  H  646  1  0.50304300  0.78563900  0.60360000  1
  H  647  1  0.50560200  0.78604100  0.63793600  1
  H  650  1  0.50225900  0.90087000  0.63266800  1
  H  651  1  0.50208700  0.91174300  0.60791100  1
  H  653  1  0.47694500  0.80535000  0.57396800  1
  H  654  1  0.52975100  0.80579400  0.57407400  1
  H  683  1  0.63711500  0.38332700  0.82710800  1
  H  684  1  0.57422200  0.37637800  0.84212500  1
  H  685  1  0.43007100  0.37636600  0.84217400  1
  H  686  1  0.36714900  0.38332900  0.82716800  1
  H  687  1  0.42381600  0.40836000  0.77595800  1
  H  688  1  0.58038500  0.40865200  0.77605400  1
  H  689  1  0.49720300  0.43677300  0.81489400  1
  H  690  1  0.49573800  0.48438800  0.77148700  1
  H  691  1  0.50180000  0.46090500  0.74499800  1
  H  692  1  0.50202500  0.36084700  0.78175700  1
  H  693  1  0.50229700  0.39648300  0.71689900  1
  H  694  1  0.49918500  0.36238500  0.71719600  1
  H  697  1  0.50224700  0.36733100  0.83209800  1
  H  698  1  0.50207600  0.39208300  0.84298300  1
  H  700  1  0.47694800  0.42601500  0.73660900  1
  H  701  1  0.52976600  0.42597600  0.73702200  1
  H  730  1  0.63715000  0.68543400  0.10412800  1
  H  731  1  0.57425500  0.69238400  0.08911200  1
  H  732  1  0.43010600  0.69240200  0.08906500  1
  H  733  1  0.36718400  0.68543500  0.10407000  1
  H  734  1  0.42385200  0.66039900  0.15527900  1
  H  735  1  0.58042400  0.66010500  0.15518000  1
  H  736  1  0.49724400  0.63197000  0.11634400  1
  H  737  1  0.49572600  0.58436900  0.15977100  1
  H  738  1  0.50183600  0.60785800  0.18624800  1
  H  739  1  0.50219100  0.70790800  0.14947600  1
  H  740  1  0.50258400  0.67217300  0.21430700  1
  H  741  1  0.50148700  0.70584800  0.21421400  1
  H  744  1  0.50228000  0.70143100  0.09913600  1
  H  745  1  0.50211400  0.67667700  0.08825400  1
  H  747  1  0.47698600  0.64272300  0.19462700  1
  H  748  1  0.52981000  0.64278400  0.19419900  1
  H  765  1  0.00225300  0.74918900  0.26041800  1
  H  766  1  0.00227600  0.82728500  0.15842900  1
  H  768  1  0.00226800  0.73881600  0.19050900  1
  H  770  1  0.00392100  0.83379400  0.22274600  1
  H  783  1  0.00226100  0.31957500  0.67081700  1
  H  784  1  0.00222500  0.24147200  0.77277300  1
  H  786  1  0.00224600  0.32993800  0.74073100  1
  H  788  1  0.01436500  0.23518900  0.70810900  1
  H  801  1  0.00217500  0.73958200  0.68042500  1
  H  802  1  0.00227900  0.84152900  0.75853300  1
  H  804  1  0.00221900  0.80949200  0.67006600  1
  H  806  1  0.98919500  0.77679200  0.76475500  1
  H  819  1  0.00218100  0.32919300  0.25081600  1
  H  820  1  0.00222200  0.22719600  0.17273100  1
  H  822  1  0.00220400  0.25924900  0.26118700  1
  H  824  1  0.99908900  0.29153200  0.16622300  1
  H  837  1  0.50226200  0.24919900  0.76050400  1
  H  838  1  0.50224100  0.32720000  0.65843100  1
  H  840  1  0.50225600  0.23878600  0.69053300  1
  H  842  1  0.51495200  0.33346400  0.72309100  1
  H  855  1  0.50225600  0.81956900  0.17072900  1
  H  856  1  0.50228000  0.74157300  0.27284000  1
  H  858  1  0.50226200  0.82998400  0.24070800  1
  H  860  1  0.50463800  0.73505900  0.20855400  1
  H  873  1  0.50218500  0.23949300  0.18043200  1
  H  874  1  0.50222900  0.34160400  0.25842700  1
  H  876  1  0.50219400  0.30945400  0.17006000  1
  H  878  1  0.50045700  0.27732400  0.26494100  1
  H  891  1  0.50215200  0.82926200  0.75080000  1
  H  892  1  0.50225300  0.72723000  0.67278200  1
  H  894  1  0.50220900  0.75930100  0.76120500  1
  H  896  1  0.48608700  0.79214400  0.66666667  1
  H  909  1  0.69316900  0.74459300  0.12856400  1
  H  910  1  0.80574900  0.63183300  0.10995600  1
  H  912  1  0.80805700  0.72403900  0.09685100  1
  H  914  1  0.69842700  0.65780800  0.14944600  1
  H  927  1  0.69313100  0.32417100  0.80269200  1
  H  928  1  0.80586200  0.43690800  0.82112600  1
  H  930  1  0.80799500  0.34474400  0.83439800  1
  H  932  1  0.69839100  0.41095600  0.78178700  1
  H  945  1  0.69316600  0.87144500  0.67583300  1
  H  946  1  0.80590000  0.88991900  0.56309800  1
  H  948  1  0.80800100  0.90318800  0.65524700  1
  H  950  1  0.69834700  0.85056000  0.58899300  1
  H  963  1  0.69310100  0.19730700  0.25540800  1
  H  964  1  0.80571100  0.17868300  0.36816300  1
  H  966  1  0.80799800  0.16560400  0.27596400  1
  H  968  1  0.69832900  0.21817500  0.34226800  1
  H  981  1  0.31129800  0.74457700  0.80267000  1
  H  982  1  0.19880300  0.63180700  0.82130100  1
  H  984  1  0.19618000  0.72400200  0.83426000  1
  H  986  1  0.30591600  0.65769600  0.78179300  1
  H  999  1  0.31127800  0.32419000  0.12854300  1
  H  1000  1  0.19861400  0.43693900  0.11008800  1
  H  1002  1  0.19617400  0.34477700  0.09697300  1
  H  1004  1  0.30587500  0.41104700  0.14946100  1
  H  1017  1  0.31132500  0.87143800  0.25542600  1
  H  1018  1  0.19864700  0.88993400  0.36817000  1
  H  1020  1  0.19623600  0.90303700  0.27601600  1
  H  1022  1  0.30600500  0.85056100  0.34235600  1
  H  1035  1  0.31130400  0.19731600  0.67581200  1
  H  1036  1  0.19877400  0.17867800  0.56304200  1
  H  1038  1  0.19616900  0.16575300  0.65524200  1
  H  1040  1  0.30594000  0.21819300  0.58887800  1
  H  1053  1  0.31137800  0.32417500  0.80264300  1
  H  1054  1  0.19877800  0.43693500  0.82130500  1
  H  1056  1  0.19652400  0.34476200  0.83442300  1
  H  1058  1  0.30601700  0.41100700  0.78179000  1
  H  1071  1  0.31142000  0.74458800  0.12857300  1
  H  1072  1  0.19866000  0.63185400  0.11008300  1
  H  1074  1  0.19658600  0.72398500  0.09680200  1
  H  1076  1  0.30605600  0.65776000  0.14944900  1
  H  1089  1  0.31134900  0.19734800  0.25541100  1
  H  1090  1  0.19856300  0.17881800  0.36813700  1
  H  1092  1  0.19652800  0.16556700  0.27600500  1
  H  1094  1  0.30605600  0.21817900  0.34232000  1
  H  1107  1  0.31140800  0.87142300  0.67582700  1
  H  1108  1  0.19877800  0.89009200  0.56306900  1
  H  1110  1  0.19654200  0.90318300  0.65524400  1
  H  1112  1  0.30607600  0.85058100  0.58892600  1
  H  1125  1  0.69314300  0.32417400  0.12857200  1
  H  1126  1  0.80565200  0.43695200  0.10991100  1
  H  1128  1  0.80818700  0.34476900  0.09690900  1
  H  1130  1  0.69861000  0.41106400  0.14944200  1
  H  1143  1  0.69315800  0.74458100  0.80268700  1
  H  1144  1  0.80588200  0.63183800  0.82118500  1
  H  1146  1  0.80819900  0.72398600  0.83432800  1
  H  1148  1  0.69865500  0.65767000  0.78181800  1
  H  1161  1  0.69316100  0.19733300  0.67582100  1
  H  1162  1  0.80585000  0.17880400  0.56307300  1
  H  1164  1  0.80816400  0.16564200  0.65520400  1
  H  1166  1  0.69857200  0.21819900  0.58887700  1
  H  1179  1  0.69317200  0.87144000  0.25541400  1
  H  1180  1  0.80572000  0.89011300  0.36819000  1
  H  1182  1  0.80822900  0.90309400  0.27601100  1
  H  1184  1  0.69863100  0.85056500  0.34234600  1
  H  1197  1  0.10446800  0.72216800  0.97635000  1
  H  1198  1  0.89944400  0.65224200  0.95616200  1
  H  1200  1  0.04637400  0.69481500  0.92052900  1
  H  1202  1  0.98616500  0.66472400  0.01062300  1
  H  1215  1  0.10441400  0.34657100  0.95487500  1
  H  1216  1  0.89951200  0.41658700  0.97507400  1
  H  1218  1  0.04630300  0.37390600  0.01060200  1
  H  1220  1  0.98611200  0.40403900  0.92060700  1
  H  1233  1  0.10445200  0.02365700  0.65340900  1
  H  1234  1  0.89950000  0.04385400  0.58342700  1
  H  1236  1  0.04631900  0.07948500  0.62611900  1
  H  1238  1  0.98603500  0.98932000  0.59596500  1
  H  1251  1  0.10439400  0.04512100  0.27779700  1
  H  1252  1  0.89935200  0.02490900  0.34771700  1
  H  1254  1  0.04628200  0.98939500  0.30514800  1
  H  1256  1  0.98600900  0.07942300  0.33527600  1
  H  1269  1  0.60442400  0.22216300  0.47631800  1
  H  1270  1  0.39941900  0.15225100  0.45621500  1
  H  1272  1  0.54616800  0.19501000  0.42051200  1
  H  1274  1  0.48617000  0.16470000  0.51063400  1
  H  1287  1  0.60444500  0.84657700  0.45490900  1
  H  1288  1  0.39956100  0.91657900  0.47501900  1
  H  1290  1  0.54616800  0.87371100  0.51062400  1
  H  1292  1  0.48618800  0.90406100  0.42059500  1
  H  1305  1  0.60441000  0.52368200  0.15340300  1
  H  1306  1  0.39947800  0.54380600  0.08343500  1
  H  1308  1  0.54614200  0.57949600  0.12630200  1
  H  1310  1  0.48602800  0.48930700  0.09594000  1
  H  1323  1  0.60442400  0.54508000  0.77780400  1
  H  1324  1  0.39939800  0.52496700  0.84771200  1
  H  1326  1  0.54611800  0.48936500  0.80494200  1
  H  1328  1  0.48608700  0.57943900  0.83529700  1
  C  1  1  0.00238800  0.73267100  0.10983400  1
  C  2  1  0.00242100  0.75211200  0.10032100  1
  C  3  1  0.00369300  0.73728000  0.06544200  1
  C  4  1  0.00296100  0.71727800  0.07370600  1
  C  5  1  0.00211800  0.70102700  0.05934500  1
  C  6  1  0.00185500  0.70445000  0.03798400  1
  C  7  1  0.00328700  0.72444800  0.03052200  1
  C  8  1  0.00430400  0.74075000  0.04419500  1
  C  9  1  0.00213300  0.76997900  0.11189800  1
  C  10  1  0.00205300  0.76881500  0.13290800  1
  C  11  1  0.00216900  0.75029700  0.14355300  1
  C  12  1  0.00225600  0.73218500  0.13169300  1
  C  13  1  0.96400200  0.70232200  0.10179300  1
  C  14  1  0.96528600  0.68257800  0.11061200  1
  C  15  1  0.03942100  0.68254800  0.11071500  1
  C  16  1  0.04080700  0.70230500  0.10193800  1
  C  17  1  0.07423100  0.67238800  0.11674600  1
  C  18  1  0.11099800  0.68175800  0.11472800  1
  C  19  1  0.11454900  0.70081600  0.10531700  1
  C  20  1  0.07931800  0.71091200  0.09901100  1
  C  21  1  0.92549800  0.71092400  0.09876800  1
  C  22  1  0.89020100  0.70087400  0.10510300  1
  C  23  1  0.89370100  0.68183200  0.11454800  1
  C  24  1  0.93043000  0.67243100  0.11658600  1
  C  37  1  0.00247400  0.71356200  0.09671000  1
  C  38  1  0.00232100  0.67183300  0.11524000  1
  C  41  1  0.00289600  0.75550600  0.07823700  1
  C  48  1  0.00235700  0.33609000  0.82140100  1
  C  49  1  0.00238700  0.31664900  0.83091600  1
  C  50  1  0.00366600  0.33148400  0.86579400  1
  C  51  1  0.00293500  0.35148600  0.85752900  1
  C  52  1  0.00208600  0.36773700  0.87189000  1
  C  53  1  0.00182900  0.36431300  0.89325000  1
  C  54  1  0.00329800  0.34431800  0.90071500  1
  C  55  1  0.00427200  0.32801700  0.88704100  1
  C  56  1  0.00209500  0.29878000  0.81934200  1
  C  57  1  0.00201500  0.29994000  0.79833000  1
  C  58  1  0.00213300  0.31845700  0.78768600  1
  C  59  1  0.00222500  0.33657200  0.79954300  1
  C  60  1  0.96396700  0.36644000  0.82944300  1
  C  61  1  0.96524500  0.38618700  0.82063000  1
  C  62  1  0.03937600  0.38621100  0.82050600  1
  C  63  1  0.04077000  0.36645900  0.82929600  1
  C  64  1  0.07418300  0.39637800  0.81448900  1
  C  65  1  0.11095200  0.38701100  0.81650600  1
  C  66  1  0.11451200  0.36795200  0.82591500  1
  C  67  1  0.07928600  0.35785600  0.83222500  1
  C  68  1  0.92546600  0.35783100  0.83245500  1
  C  69  1  0.89016600  0.36788400  0.82613300  1
  C  70  1  0.89364800  0.38694000  0.81671400  1
  C  71  1  0.93038000  0.39633100  0.81465200  1
  C  84  1  0.00244100  0.35520000  0.83452300  1
  C  85  1  0.00227300  0.39692900  0.81599500  1
  C  88  1  0.00285700  0.31325800  0.85300100  1
  C  95  1  0.00237600  0.89016500  0.66391100  1
  C  96  1  0.00241000  0.89967700  0.68335200  1
  C  97  1  0.00368100  0.93455600  0.66852200  1
  C  98  1  0.00294400  0.92629400  0.64851800  1
  C  99  1  0.00210400  0.94066100  0.63227200  1
  C  100  1  0.00187600  0.96202100  0.63570200  1
  C  101  1  0.00331200  0.96947900  0.65570100  1
  C  102  1  0.00426000  0.95580100  0.67199800  1
  C  103  1  0.00212100  0.88810200  0.70122200  1
  C  104  1  0.00204200  0.86709100  0.70006100  1
  C  105  1  0.00215400  0.85644700  0.68154200  1
  C  106  1  0.00224300  0.86830500  0.66342700  1
  C  107  1  0.96398400  0.89820400  0.63356300  1
  C  108  1  0.96526500  0.88939300  0.61381400  1
  C  109  1  0.03939600  0.88928200  0.61378700  1
  C  110  1  0.04078900  0.89806300  0.63354100  1
  C  111  1  0.07420600  0.88325900  0.60362300  1
  C  112  1  0.11098000  0.88529500  0.61298000  1
  C  113  1  0.11453100  0.89468500  0.63204900  1
  C  114  1  0.07930300  0.90099100  0.64214600  1
  C  115  1  0.92548300  0.90122700  0.64216800  1
  C  116  1  0.89018700  0.89488900  0.63212300  1
  C  117  1  0.89367800  0.88544500  0.61308100  1
  C  118  1  0.93040100  0.88341200  0.60367400  1
  C  131  1  0.00245800  0.90328900  0.64480100  1
  C  132  1  0.00229500  0.88476000  0.60307100  1
  C  135  1  0.00287500  0.92176000  0.68674600  1
  C  142  1  0.00234100  0.17859700  0.26731800  1
  C  143  1  0.00237400  0.16907800  0.24788000  1
  C  144  1  0.00364400  0.13420400  0.26272000  1
  C  145  1  0.00289800  0.14247100  0.28272100  1
  C  146  1  0.00205000  0.12810700  0.29897100  1
  C  147  1  0.00180500  0.10674600  0.29554500  1
  C  148  1  0.00322200  0.09928500  0.27554800  1
  C  149  1  0.00422100  0.11295700  0.25924800  1
  C  150  1  0.00208000  0.18064500  0.23000700  1
  C  151  1  0.00200000  0.20165600  0.23115900  1
  C  152  1  0.00211800  0.21230700  0.24967300  1
  C  153  1  0.00221000  0.20045600  0.26779300  1
  C  154  1  0.96394900  0.17056700  0.29767100  1
  C  155  1  0.96523600  0.17938000  0.31741800  1
  C  156  1  0.03936600  0.17947800  0.31744900  1
  C  157  1  0.04075100  0.17069900  0.29769400  1
  C  158  1  0.07418000  0.18548200  0.32762000  1
  C  159  1  0.11094900  0.18346200  0.31825000  1
  C  160  1  0.11449200  0.17406900  0.29918300  1
  C  161  1  0.07926100  0.16776500  0.28908900  1
  C  162  1  0.92544800  0.16755000  0.28906600  1
  C  163  1  0.89014800  0.17387100  0.29912200  1
  C  164  1  0.89364500  0.18332100  0.31816200  1
  C  165  1  0.93038000  0.18538600  0.32754900  1
  C  178  1  0.00241900  0.16547700  0.28643200  1
  C  179  1  0.00226700  0.18400600  0.32816400  1
  C  182  1  0.00284500  0.14699400  0.24449200  1
  C  189  1  0.00227300  0.73180400  0.82193600  1
  C  190  1  0.00256000  0.75107200  0.83168900  1
  C  191  1  0.00248700  0.73630400  0.86613700  1
  C  192  1  0.00139400  0.71612000  0.85828400  1
  C  193  1  0.99857400  0.70018200  0.87316200  1
  C  194  1  0.99688500  0.70448700  0.89445900  1
  C  195  1  0.99765700  0.72494500  0.90090400  1
  C  196  1  0.00138500  0.74063900  0.88706400  1
  C  197  1  0.00248400  0.76917700  0.82070300  1
  C  198  1  0.00280800  0.76850200  0.79978100  1
  C  199  1  0.00197900  0.75001700  0.78820500  1
  C  200  1  0.00218900  0.73177100  0.80001400  1
  C  201  1  0.04052600  0.70152400  0.82997100  1
  C  202  1  0.03927700  0.68194300  0.82081500  1
  C  203  1  0.96503800  0.68198000  0.82063600  1
  C  204  1  0.96370300  0.70160900  0.82966800  1
  C  205  1  0.93013700  0.67203200  0.81439500  1
  C  206  1  0.89344100  0.68150000  0.81644500  1
  C  207  1  0.89001500  0.70048900  0.82601500  1
  C  208  1  0.92530600  0.71036500  0.83254800  1
  C  209  1  0.07895800  0.71028600  0.83282700  1
  C  210  1  0.11429400  0.70047000  0.82619600  1
  C  211  1  0.11086700  0.68152000  0.81655200  1
  C  212  1  0.07419500  0.67203000  0.81452900  1
  C  225  1  0.00205000  0.71264100  0.83513600  1
  C  226  1  0.00217800  0.67128200  0.81603700  1
  C  229  1  0.00306500  0.75446300  0.85357300  1
  C  236  1  0.00228700  0.33697100  0.10929200  1
  C  237  1  0.00262400  0.31771600  0.09951800  1
  C  238  1  0.00242400  0.33246600  0.06509800  1
  C  239  1  0.00135500  0.35264800  0.07296100  1
  C  240  1  0.99854100  0.36859000  0.05809100  1
  C  241  1  0.99685200  0.36429400  0.03679400  1
  C  242  1  0.99761800  0.34383600  0.03034000  1
  C  243  1  0.00134300  0.32813500  0.04417300  1
  C  244  1  0.00249100  0.29961400  0.11044500  1
  C  245  1  0.00230400  0.30026500  0.13131000  1
  C  246  1  0.00213900  0.31873800  0.14297500  1
  C  247  1  0.00223100  0.33699800  0.13120800  1
  C  248  1  0.04049300  0.36724000  0.10127000  1
  C  249  1  0.03924600  0.38681800  0.11042800  1
  C  250  1  0.96500500  0.38678500  0.11060400  1
  C  251  1  0.96366800  0.36715300  0.10157800  1
  C  252  1  0.93010800  0.39673600  0.11684400  1
  C  253  1  0.89342000  0.38725700  0.11482200  1
  C  254  1  0.88997300  0.36828100  0.10522700  1
  C  255  1  0.92526400  0.35840000  0.09869400  1
  C  256  1  0.07892400  0.35847400  0.09841300  1
  C  257  1  0.11426100  0.36828900  0.10504200  1
  C  258  1  0.11084000  0.38724200  0.11468200  1
  C  259  1  0.07416600  0.39673200  0.11671000  1
  C  272  1  0.00201800  0.35612800  0.09610400  1
  C  273  1  0.00214500  0.39748300  0.11520100  1
  C  276  1  0.00305000  0.31430800  0.07764900  1
  C  283  1  0.00236800  0.89070800  0.26820700  1
  C  284  1  0.00272200  0.90048300  0.24895300  1
  C  285  1  0.00248800  0.93490200  0.26370100  1
  C  286  1  0.00140500  0.92704000  0.28388500  1
  C  287  1  0.99857700  0.94191100  0.29982500  1
  C  288  1  0.99680200  0.96320500  0.29552400  1
  C  289  1  0.99766000  0.96966000  0.27506800  1
  C  290  1  0.00142000  0.95582700  0.25937000  1
  C  291  1  0.00256900  0.88955800  0.23085200  1
  C  292  1  0.00215100  0.86869700  0.23150300  1
  C  293  1  0.00229600  0.85702700  0.24997300  1
  C  294  1  0.00232500  0.86879200  0.26823300  1
  C  295  1  0.04054800  0.89873000  0.29847800  1
  C  296  1  0.03930300  0.88955800  0.31805000  1
  C  297  1  0.96505800  0.88939400  0.31802100  1
  C  298  1  0.96372400  0.89841600  0.29838800  1
  C  299  1  0.93016400  0.88315500  0.32797100  1
  C  300  1  0.89347400  0.88517500  0.31849000  1
  C  301  1  0.89003000  0.89476500  0.29951200  1
  C  302  1  0.92532100  0.90129200  0.28962900  1
  C  303  1  0.07897900  0.90159500  0.28971600  1
  C  304  1  0.11431800  0.89495900  0.29952500  1
  C  305  1  0.11089900  0.88531800  0.31847600  1
  C  306  1  0.07422600  0.88329000  0.32796800  1
  C  319  1  0.00207400  0.90389600  0.28736400  1
  C  320  1  0.00220100  0.88480000  0.32872000  1
  C  323  1  0.00312100  0.92235200  0.24554500  1
  C  330  1  0.00239500  0.17806200  0.66303800  1
  C  331  1  0.00279800  0.16830800  0.68230600  1
  C  332  1  0.00244000  0.13386100  0.66754100  1
  C  333  1  0.00136100  0.14171600  0.64735700  1
  C  334  1  0.99855300  0.12683600  0.63141800  1
  C  335  1  0.99672800  0.10554300  0.63572800  1
  C  336  1  0.99758000  0.09909500  0.65618600  1
  C  337  1  0.00135200  0.11293700  0.67187700  1
  C  338  1  0.00258100  0.17928800  0.70040900  1
  C  339  1  0.00162100  0.20019900  0.69973200  1
  C  340  1  0.00245700  0.21178700  0.68125300  1
  C  341  1  0.00237700  0.19998500  0.66300400  1
  C  342  1  0.04051400  0.17001600  0.63275300  1
  C  343  1  0.03926400  0.17919100  0.61318100  1
  C  344  1  0.96501700  0.17936200  0.61321700  1
  C  345  1  0.96369100  0.17034400  0.63285200  1
  C  346  1  0.93012000  0.18560800  0.60327000  1
  C  347  1  0.89343200  0.18358800  0.61275300  1
  C  348  1  0.88999700  0.17399900  0.63173200  1
  C  349  1  0.92529100  0.16747000  0.64161100  1
  C  350  1  0.07895000  0.16715600  0.64151300  1
  C  351  1  0.11428200  0.17380200  0.63170400  1
  C  352  1  0.11085400  0.18344200  0.61275100  1
  C  353  1  0.07418200  0.18546400  0.60325900  1
  C  366  1  0.00204500  0.16486200  0.64387600  1
  C  367  1  0.00215700  0.18396100  0.60251900  1
  C  370  1  0.00310400  0.14642600  0.68569900  1
  C  377  1  0.50236300  0.23266600  0.61017400  1
  C  378  1  0.50238900  0.25204400  0.60053100  1
  C  379  1  0.50366400  0.23700100  0.56579900  1
  C  380  1  0.50290700  0.21702100  0.57416000  1
  C  381  1  0.50201000  0.20077000  0.55977000  1
  C  382  1  0.50179200  0.20417600  0.53836900  1
  C  383  1  0.50329700  0.22416300  0.53089800  1
  C  384  1  0.50430300  0.24046000  0.54455200  1
  C  385  1  0.50209300  0.27000100  0.61195800  1
  C  386  1  0.50201000  0.26898100  0.63296600  1
  C  387  1  0.50213800  0.25051800  0.64371200  1
  C  388  1  0.50223500  0.23232900  0.63201800  1
  C  389  1  0.46406600  0.20225600  0.60258700  1
  C  390  1  0.46500400  0.18270100  0.61183500  1
  C  391  1  0.53966500  0.18266600  0.61192100  1
  C  392  1  0.54069800  0.20224000  0.60272400  1
  C  393  1  0.57505400  0.17237800  0.61707600  1
  C  394  1  0.61211100  0.18112000  0.61326900  1
  C  395  1  0.61459000  0.20043100  0.60420600  1
  C  396  1  0.57896200  0.21073300  0.59905400  1
  C  397  1  0.42581000  0.21073700  0.59881700  1
  C  398  1  0.39012300  0.20048200  0.60401100  1
  C  399  1  0.39255800  0.18121200  0.61316300  1
  C  400  1  0.42958200  0.17244900  0.61698800  1
  C  413  1  0.50244500  0.21342600  0.59726300  1
  C  414  1  0.50230300  0.17194700  0.61639100  1
  C  417  1  0.50286800  0.25530700  0.57845500  1
  C  424  1  0.50241300  0.83609600  0.32106300  1
  C  425  1  0.50243400  0.81671700  0.33070600  1
  C  426  1  0.50371500  0.83176200  0.36543800  1
  C  427  1  0.50296000  0.85174200  0.35707500  1
  C  428  1  0.50206100  0.86799200  0.37146500  1
  C  429  1  0.50184500  0.86458700  0.39286400  1
  C  430  1  0.50338600  0.84460200  0.40033700  1
  C  431  1  0.50434800  0.82830300  0.38668500  1
  C  432  1  0.50213200  0.79876100  0.31928000  1
  C  433  1  0.50204900  0.79978000  0.29827400  1
  C  434  1  0.50217600  0.81823800  0.28752400  1
  C  435  1  0.50228000  0.83643100  0.29921800  1
  C  436  1  0.46411300  0.86650500  0.32864800  1
  C  437  1  0.46505100  0.88606100  0.31940000  1
  C  438  1  0.53971000  0.88609700  0.31931500  1
  C  439  1  0.54074500  0.86652400  0.32851200  1
  C  440  1  0.57509500  0.89638500  0.31415400  1
  C  441  1  0.61215500  0.88765100  0.31796900  1
  C  442  1  0.61462600  0.86835300  0.32706000  1
  C  443  1  0.57901000  0.85803300  0.33218700  1
  C  444  1  0.42586000  0.85802400  0.33241700  1
  C  445  1  0.39017600  0.86828400  0.32722600  1
  C  446  1  0.39260200  0.88754300  0.31805100  1
  C  447  1  0.42962700  0.89631300  0.31424700  1
  C  460  1  0.50249600  0.85533600  0.33397200  1
  C  461  1  0.50234500  0.89681700  0.31484600  1
  C  464  1  0.50290700  0.81345600  0.35278200  1
  C  471  1  0.50234500  0.38982600  0.16390300  1
  C  472  1  0.50237400  0.39946600  0.18328100  1
  C  473  1  0.50365000  0.43419900  0.16824500  1
  C  474  1  0.50288900  0.42584300  0.14826100  1
  C  475  1  0.50199900  0.44023800  0.13201400  1
  C  476  1  0.50181200  0.46163700  0.13542800  1
  C  477  1  0.50332100  0.46910200  0.15541500  1
  C  478  1  0.50425900  0.45544500  0.17170900  1
  C  479  1  0.50208100  0.38804000  0.20124000  1
  C  480  1  0.50199600  0.36703500  0.20022900  1
  C  481  1  0.50211700  0.35628700  0.18177300  1
  C  482  1  0.50221500  0.36798000  0.16357700  1
  C  483  1  0.46404800  0.39741900  0.13349200  1
  C  484  1  0.46498600  0.38816800  0.11393700  1
  C  485  1  0.53965100  0.38808300  0.11390400  1
  C  486  1  0.54067700  0.39728100  0.13347700  1
  C  487  1  0.57503900  0.38292500  0.10361900  1
  C  488  1  0.61209600  0.38672700  0.11236100  1
  C  489  1  0.61456100  0.39583100  0.13165500  1
  C  490  1  0.57893900  0.40095700  0.14197100  1
  C  491  1  0.42579500  0.40119000  0.14197500  1
  C  492  1  0.39011400  0.39602400  0.13170300  1
  C  493  1  0.39253700  0.38685900  0.11243900  1
  C  494  1  0.42956200  0.38301600  0.10368500  1
  C  507  1  0.50242800  0.40273900  0.14466400  1
  C  508  1  0.50228600  0.38361100  0.10318400  1
  C  511  1  0.50284500  0.42154200  0.18654700  1
  C  518  1  0.50236800  0.67893700  0.76733500  1
  C  519  1  0.50240400  0.66929900  0.74795500  1
  C  520  1  0.50368800  0.63456400  0.76299200  1
  C  521  1  0.50292200  0.64292000  0.78297500  1
  C  522  1  0.50202500  0.62852700  0.79922300  1
  C  523  1  0.50182400  0.60712600  0.79581300  1
  C  524  1  0.50330900  0.59966100  0.77582300  1
  C  525  1  0.50429500  0.61331700  0.75952900  1
  C  526  1  0.50210800  0.68072900  0.73000000  1
  C  527  1  0.50203400  0.70173700  0.73102600  1
  C  528  1  0.50214400  0.71248000  0.74948800  1
  C  529  1  0.50223500  0.70078200  0.76767800  1
  C  530  1  0.46408300  0.67134300  0.79774500  1
  C  531  1  0.46502100  0.68058800  0.81730200  1
  C  532  1  0.53968600  0.68068000  0.81732700  1
  C  533  1  0.54071000  0.67148400  0.79775400  1
  C  534  1  0.57507700  0.68584200  0.82760900  1
  C  535  1  0.61213200  0.68203900  0.81886400  1
  C  536  1  0.61459900  0.67294600  0.79956300  1
  C  537  1  0.57897400  0.66781600  0.78925400  1
  C  538  1  0.42582800  0.66757800  0.78926000  1
  C  539  1  0.39014100  0.67276200  0.79951900  1
  C  540  1  0.39257600  0.68190100  0.81879500  1
  C  541  1  0.42959700  0.68572900  0.82755900  1
  C  554  1  0.50246000  0.66602200  0.78657200  1
  C  555  1  0.50232400  0.68514600  0.82805200  1
  C  558  1  0.50288600  0.64722300  0.74468900  1
  C  565  1  0.50229200  0.23176200  0.32160400  1
  C  566  1  0.50263800  0.25097000  0.33147300  1
  C  567  1  0.50248100  0.23603200  0.36576700  1
  C  568  1  0.50137100  0.21586400  0.35782700  1
  C  569  1  0.49857500  0.19992700  0.37273400  1
  C  570  1  0.49702200  0.20419000  0.39407700  1
  C  571  1  0.49769700  0.22465700  0.40051000  1
  C  572  1  0.50139200  0.24035300  0.38669300  1
  C  573  1  0.50249300  0.26913500  0.32065500  1
  C  574  1  0.50223500  0.26857300  0.29979700  1
  C  575  1  0.50216700  0.25012800  0.28807500  1
  C  576  1  0.50223800  0.23182700  0.29971100  1
  C  577  1  0.54037500  0.20145100  0.32917900  1
  C  578  1  0.53948500  0.18206900  0.31959600  1
  C  579  1  0.46473100  0.18209900  0.31943700  1
  C  580  1  0.46375500  0.20154300  0.32887900  1
  C  581  1  0.42924200  0.17200900  0.31409300  1
  C  582  1  0.39225000  0.18085900  0.31787800  1
  C  583  1  0.38991300  0.20008700  0.32713500  1
  C  584  1  0.42560900  0.21019700  0.33248500  1
  C  585  1  0.57855700  0.21009500  0.33279100  1
  C  586  1  0.61430600  0.20006300  0.32730900  1
  C  587  1  0.61196900  0.18085900  0.31800200  1
  C  588  1  0.57498900  0.17201000  0.31420500  1
  C  601  1  0.50200700  0.21249100  0.33459000  1
  C  602  1  0.50212600  0.17139500  0.31488500  1
  C  605  1  0.50305800  0.25426300  0.35333400  1
  C  612  1  0.50222900  0.83697700  0.60966000  1
  C  613  1  0.50250500  0.81774500  0.59982500  1
  C  614  1  0.50246900  0.83272600  0.56548300  1
  C  615  1  0.50139500  0.85289500  0.57342200  1
  C  616  1  0.49860800  0.86884000  0.55851900  1
  C  617  1  0.49706100  0.86458700  0.53717500  1
  C  618  1  0.49774100  0.84412200  0.53073600  1
  C  619  1  0.50142200  0.82841900  0.54455200  1
  C  620  1  0.50245700  0.79957800  0.61074000  1
  C  621  1  0.50300200  0.80018100  0.63168900  1
  C  622  1  0.50193900  0.81864100  0.64326800  1
  C  623  1  0.50215500  0.83692400  0.63156300  1
  C  624  1  0.54039900  0.86730700  0.60206500  1
  C  625  1  0.53951100  0.88669300  0.61164400  1
  C  626  1  0.46476100  0.88666700  0.61180400  1
  C  627  1  0.46378200  0.86722600  0.60235900  1
  C  628  1  0.42927200  0.89676200  0.61714600  1
  C  629  1  0.39228000  0.88792600  0.61332800  1
  C  630  1  0.38993100  0.86868300  0.60410300  1
  C  631  1  0.42563300  0.85857800  0.59874700  1
  C  632  1  0.57858100  0.85866600  0.59844500  1
  C  633  1  0.61432400  0.86871200  0.60390900  1
  C  634  1  0.61200200  0.88790500  0.61323500  1
  C  635  1  0.57501800  0.89675300  0.61703400  1
  C  648  1  0.50202500  0.85626000  0.59666100  1
  C  649  1  0.50215800  0.89736800  0.61635900  1
  C  652  1  0.50305200  0.81448600  0.57793500  1
  C  659  1  0.50237400  0.39035600  0.76822600  1
  C  660  1  0.50278600  0.40020500  0.74900500  1
  C  661  1  0.50247500  0.43452700  0.76396600  1
  C  662  1  0.50138900  0.42658500  0.78413400  1
  C  663  1  0.49859000  0.44148900  0.80007600  1
  C  664  1  0.49694800  0.46283000  0.79581800  1
  C  665  1  0.49770300  0.46927000  0.77535400  1
  C  666  1  0.50142200  0.45545500  0.75965500  1
  C  667  1  0.50257000  0.38932900  0.73083600  1
  C  668  1  0.50159000  0.36841700  0.73142600  1
  C  669  1  0.50244800  0.35678000  0.74987800  1
  C  670  1  0.50236000  0.36845700  0.76816800  1
  C  671  1  0.54039300  0.39794700  0.79855400  1
  C  672  1  0.53950600  0.38835900  0.81793400  1
  C  673  1  0.46474900  0.38820200  0.81790300  1
  C  674  1  0.46377600  0.39764600  0.79846100  1
  C  675  1  0.42925700  0.38286000  0.82799500  1
  C  676  1  0.39226500  0.38668600  0.81916200  1
  C  677  1  0.38992800  0.39592400  0.79992400  1
  C  678  1  0.42563000  0.40127000  0.78981500  1
  C  679  1  0.57857500  0.40156600  0.78991100  1
  C  680  1  0.61432400  0.39609700  0.79994800  1
  C  681  1  0.61199300  0.38677900  0.81914400  1
  C  682  1  0.57501200  0.38297000  0.82799100  1
  C  695  1  0.50202800  0.40334900  0.78750400  1
  C  696  1  0.50214700  0.38364000  0.82860400  1
  C  699  1  0.50310500  0.42208300  0.74573100  1
  C  706  1  0.50236300  0.67839300  0.16299500  1
  C  707  1  0.50272600  0.66852600  0.18220300  1
  C  708  1  0.50250500  0.63422900  0.16726900  1
  C  709  1  0.50141600  0.64216700  0.14709900  1
  C  710  1  0.49862000  0.62725900  0.13116300  1
  C  711  1  0.49691000  0.60592100  0.13543300  1
  C  712  1  0.49768800  0.59948800  0.15589800  1
  C  713  1  0.50144500  0.61330300  0.17159100  1
  C  714  1  0.50257300  0.67934600  0.20036800  1
  C  715  1  0.50211700  0.70020400  0.19980400  1
  C  716  1  0.50230300  0.71192600  0.18136200  1
  C  717  1  0.50232100  0.70028600  0.16306100  1
  C  718  1  0.54043200  0.67081000  0.13268100  1
  C  719  1  0.53954100  0.68040400  0.11330400  1
  C  720  1  0.46478500  0.68056100  0.11333300  1
  C  721  1  0.46381100  0.67111200  0.13277200  1
  C  722  1  0.42929300  0.68590300  0.10324100  1
  C  723  1  0.39230000  0.68207700  0.11207500  1
  C  724  1  0.38996900  0.67282700  0.13130600  1
  C  725  1  0.42566800  0.66748900  0.14142100  1
  C  726  1  0.57861000  0.66719800  0.14132700  1
  C  727  1  0.61436000  0.67266700  0.13128900  1
  C  728  1  0.61202800  0.68199400  0.11209600  1
  C  729  1  0.57504800  0.68579700  0.10324800  1
  C  742  1  0.50206400  0.66540500  0.14372500  1
  C  743  1  0.50218200  0.68512000  0.10263300  1
  C  746  1  0.50312600  0.64666500  0.18549800  1
  C  753  1  0.00224300  0.76978100  0.19585100  1
  C  754  1  0.00223700  0.76843800  0.21751200  1
  C  755  1  0.00222800  0.78562100  0.23041800  1
  C  756  1  0.00221600  0.80574600  0.22288900  1
  C  757  1  0.00218700  0.80686800  0.20109200  1
  C  758  1  0.00224300  0.78996700  0.18844100  1
  C  761  1  0.00225000  0.75846600  0.24793700  1
  C  764  1  0.00226400  0.81793600  0.17086300  1
  C  767  1  0.00223700  0.75221300  0.18351500  1
  C  769  1  0.00241300  0.82450300  0.23340800  1
  C  771  1  0.00218100  0.29896100  0.73538000  1
  C  772  1  0.00213000  0.30031000  0.71371800  1
  C  773  1  0.00207100  0.28311900  0.70080800  1
  C  774  1  0.00199700  0.26296300  0.70831900  1
  C  775  1  0.00169800  0.26181800  0.73007900  1
  C  776  1  0.00208600  0.27875400  0.74275600  1
  C  779  1  0.00222800  0.31029700  0.68329800  1
  C  782  1  0.00220400  0.25080800  0.76032600  1
  C  785  1  0.00221300  0.31653700  0.74772200  1
  C  787  1  0.00372600  0.24409900  0.69799500  1
  C  789  1  0.00225200  0.80414500  0.70104300  1
  C  790  1  0.00230800  0.78248300  0.69969400  1
  C  791  1  0.00237500  0.76957200  0.71688500  1
  C  792  1  0.00240900  0.77707900  0.73704400  1
  C  793  1  0.00280100  0.79883400  0.73819600  1
  C  794  1  0.00238900  0.81151500  0.72125500  1
  C  797  1  0.00221000  0.75206100  0.68970500  1
  C  800  1  0.00227500  0.82907900  0.74919800  1
  C  803  1  0.00219800  0.81648500  0.68346400  1
  C  805  1  0.00066900  0.76678600  0.75592300  1
  C  807  1  0.00219500  0.26462400  0.23022300  1
  C  808  1  0.00220400  0.28628600  0.23156900  1
  C  809  1  0.00222200  0.29919200  0.21438300  1
  C  810  1  0.00223100  0.29166300  0.19425700  1
  C  811  1  0.00232700  0.26986600  0.19313300  1
  C  812  1  0.00223400  0.25721700  0.21003800  1
  C  815  1  0.00218900  0.31671100  0.24154100  1
  C  818  1  0.00221900  0.23963200  0.18207600  1
  C  821  1  0.00217800  0.25227300  0.24778000  1
  C  823  1  0.00188200  0.30217000  0.17549200  1
  C  825  1  0.50218200  0.26976900  0.69594600  1
  C  826  1  0.50212600  0.26841300  0.71759400  1
  C  827  1  0.50206400  0.28561300  0.73046800  1
  C  828  1  0.50198100  0.30573700  0.72289200  1
  C  829  1  0.50165500  0.30689500  0.70114500  1
  C  830  1  0.50207900  0.28995200  0.68851000  1
  C  833  1  0.50222900  0.25846000  0.74801300  1
  C  836  1  0.50219400  0.31788400  0.67089500  1
  C  839  1  0.50221800  0.25222800  0.68362300  1
  C  841  1  0.50383900  0.32458700  0.73314400  1
  C  843  1  0.50224100  0.79901700  0.23529300  1
  C  844  1  0.50223200  0.80037000  0.21364500  1
  C  845  1  0.50222100  0.78317900  0.20077500  1
  C  846  1  0.50220300  0.76308600  0.20837100  1
  C  847  1  0.50215500  0.76195500  0.23015900  1
  C  848  1  0.50223800  0.77886000  0.24276400  1
  C  851  1  0.50225000  0.81030700  0.18322100  1
  C  854  1  0.50226500  0.75090400  0.26039000  1
  C  857  1  0.50223500  0.81654200  0.24761500  1
  C  859  1  0.50248700  0.74434900  0.19791000  1
  C  861  1  0.50219100  0.30405600  0.20099400  1
  C  862  1  0.50219700  0.28241000  0.19963000  1
  C  863  1  0.50220600  0.26953900  0.21682000  1
  C  864  1  0.50220900  0.27713600  0.23691200  1
  C  865  1  0.50227100  0.29892400  0.23804400  1
  C  866  1  0.50222300  0.31153000  0.22114300  1
  C  869  1  0.50219100  0.25198500  0.18969200  1
  C  872  1  0.50221500  0.32915600  0.24909500  1
  C  875  1  0.50217600  0.31638400  0.18348600  1
  C  877  1  0.50202500  0.26667100  0.25564600  1
  C  879  1  0.50226800  0.76471300  0.73021200  1
  C  880  1  0.50234500  0.78635800  0.73157100  1
  C  881  1  0.50242500  0.79923600  0.71436400  1
  C  882  1  0.50249600  0.79167500  0.69421900  1
  C  883  1  0.50296600  0.76995400  0.69304400  1
  C  884  1  0.50244800  0.75730300  0.71001000  1
  C  887  1  0.50220300  0.81677200  0.74153500  1
  C  890  1  0.50230000  0.73970200  0.68209000  1
  C  893  1  0.50218800  0.75239000  0.74776100  1
  C  895  1  0.49991900  0.80180000  0.67531600  1
  C  897  1  0.78529300  0.69926600  0.11146600  1
  C  898  1  0.75029800  0.70936600  0.11803700  1
  C  899  1  0.71704300  0.69901700  0.12567000  1
  C  900  1  0.71530600  0.67758400  0.12739500  1
  C  901  1  0.74997000  0.66740100  0.12075300  1
  C  902  1  0.78283700  0.67771100  0.11258500  1
  C  905  1  0.70718800  0.73102500  0.12617500  1
  C  908  1  0.79177600  0.64544800  0.11215200  1
  C  911  1  0.81644200  0.71103100  0.10324600  1
  C  913  1  0.68716600  0.66703900  0.13896200  1
  C  915  1  0.78530500  0.36949700  0.81971400  1
  C  916  1  0.75028600  0.35939900  0.81317900  1
  C  917  1  0.71701300  0.36974600  0.80556100  1
  C  918  1  0.71527100  0.39118100  0.80383700  1
  C  919  1  0.74991900  0.40136400  0.81049600  1
  C  920  1  0.78278700  0.39105300  0.81866200  1
  C  923  1  0.70716100  0.33773800  0.80506000  1
  C  926  1  0.79157100  0.42333100  0.81926400  1
  C  929  1  0.81640900  0.35773700  0.82798500  1
  C  931  1  0.68713100  0.40172500  0.79227100  1
  C  933  1  0.78533800  0.88847200  0.63050700  1
  C  934  1  0.75031000  0.88193900  0.64060200  1
  C  935  1  0.71704600  0.87431000  0.63025600  1
  C  936  1  0.71541000  0.87251300  0.60882400  1
  C  937  1  0.74999600  0.87923400  0.59863600  1
  C  938  1  0.78283500  0.88742000  0.60894900  1
  C  941  1  0.70715500  0.87385800  0.66226200  1
  C  944  1  0.79161300  0.88804300  0.57667300  1
  C  947  1  0.81642700  0.89675800  0.64226400  1
  C  949  1  0.68715700  0.86102200  0.59827300  1
  C  951  1  0.78524900  0.18023400  0.30073100  1
  C  952  1  0.75025700  0.18681200  0.29063300  1
  C  953  1  0.71700400  0.19445600  0.30097900  1
  C  954  1  0.71536200  0.19623400  0.32240800  1
  C  955  1  0.74996100  0.18953400  0.33260400  1
  C  956  1  0.78280200  0.18134900  0.32228700  1
  C  959  1  0.70710800  0.19490700  0.26897600  1
  C  962  1  0.79174000  0.18089500  0.35455200  1
  C  965  1  0.81638600  0.17199900  0.28897000  1
  C  967  1  0.68713100  0.20772000  0.33298300  1
  C  969  1  0.21921700  0.69922500  0.81975700  1
  C  970  1  0.25420600  0.70933500  0.81319400  1
  C  971  1  0.28746800  0.69899200  0.80554600  1
  C  972  1  0.28921700  0.67755600  0.80380300  1
  C  973  1  0.25457500  0.66737100  0.81047800  1
  C  974  1  0.22170900  0.67767500  0.81865200  1
  C  977  1  0.29729500  0.73100700  0.80505700  1
  C  980  1  0.21277700  0.64541900  0.81910500  1
  C  983  1  0.18795000  0.71093600  0.82793200  1
  C  985  1  0.31727800  0.66699000  0.79219100  1
  C  987  1  0.21913700  0.36954500  0.11153100  1
  C  988  1  0.25415400  0.35943200  0.11805800  1
  C  989  1  0.28743100  0.36977400  0.12569000  1
  C  990  1  0.28918500  0.39121000  0.12743100  1
  C  991  1  0.25455600  0.40139700  0.12073900  1
  C  992  1  0.22169000  0.39109500  0.11256900  1
  C  995  1  0.29725900  0.33776100  0.12617600  1
  C  998  1  0.21291200  0.42336400  0.11194500  1
  C  1001  1  0.18791600  0.35783700  0.10330300  1
  C  1003  1  0.31724200  0.40177000  0.13904900  1
  C  1005  1  0.21918400  0.88845900  0.30077600  1
  C  1006  1  0.25421300  0.88193500  0.29067000  1
  C  1007  1  0.28748400  0.87429300  0.30101200  1
  C  1008  1  0.28912500  0.87247800  0.32244500  1
  C  1009  1  0.25456200  0.87923400  0.33263600  1
  C  1010  1  0.22172200  0.88742200  0.32232800  1
  C  1013  1  0.29734800  0.87385400  0.26900100  1
  C  1016  1  0.21294400  0.88806500  0.35459700  1
  C  1019  1  0.18797000  0.89669300  0.28906800  1
  C  1021  1  0.31730100  0.86093900  0.33301600  1
  C  1023  1  0.21920000  0.18025200  0.63046100  1
  C  1024  1  0.25419200  0.18681800  0.64057000  1
  C  1025  1  0.28745000  0.19447400  0.63023100  1
  C  1026  1  0.28910700  0.19627100  0.60879900  1
  C  1027  1  0.25453100  0.18953600  0.59860000  1
  C  1028  1  0.22168500  0.18135400  0.60890900  1
  C  1031  1  0.29731600  0.19491300  0.66223900  1
  C  1034  1  0.21274800  0.18088500  0.57665400  1
  C  1037  1  0.18793800  0.17207300  0.64217200  1
  C  1039  1  0.31725400  0.20781200  0.59820800  1
  C  1041  1  0.21931700  0.36951000  0.81977000  1
  C  1042  1  0.25427600  0.35940000  0.81318600  1
  C  1043  1  0.28750100  0.36975200  0.80553800  1
  C  1044  1  0.28918100  0.39118700  0.80381200  1
  C  1045  1  0.25454900  0.40137600  0.81047500  1
  C  1046  1  0.22172500  0.39106300  0.81866400  1
  C  1049  1  0.29736600  0.33774200  0.80503700  1
  C  1052  1  0.21276000  0.42332500  0.81910400  1
  C  1055  1  0.18819800  0.35775500  0.82797700  1
  C  1057  1  0.31726300  0.40173900  0.79224700  1
  C  1059  1  0.21930100  0.69925500  0.11152300  1
  C  1060  1  0.25428800  0.70936300  0.11807200  1
  C  1061  1  0.28753000  0.69901100  0.12570200  1
  C  1062  1  0.28921500  0.67757600  0.12742400  1
  C  1063  1  0.25459700  0.66738500  0.12074500  1
  C  1064  1  0.22177200  0.67769900  0.11256000  1
  C  1067  1  0.29739300  0.73102100  0.12620000  1
  C  1070  1  0.21296200  0.64542500  0.11194800  1
  C  1073  1  0.18822800  0.71100500  0.10326400  1
  C  1075  1  0.31729800  0.66702500  0.13898900  1
  C  1077  1  0.21922900  0.18028900  0.30073700  1
  C  1078  1  0.25422600  0.18683600  0.29063600  1
  C  1079  1  0.28745600  0.19448000  0.30098900  1
  C  1080  1  0.28902500  0.19627800  0.32242000  1
  C  1081  1  0.25447100  0.18953500  0.33261300  1
  C  1082  1  0.22167900  0.18132800  0.32229400  1
  C  1085  1  0.29736000  0.19492900  0.26898000  1
  C  1088  1  0.21286400  0.18069700  0.35456700  1
  C  1091  1  0.18816700  0.17202000  0.28898800  1
  C  1093  1  0.31722400  0.20775900  0.33298600  1
  C  1095  1  0.21932800  0.88852800  0.63049500  1
  C  1096  1  0.25428700  0.88193900  0.64060200  1
  C  1097  1  0.28750700  0.87428100  0.63025300  1
  C  1098  1  0.28909400  0.87250100  0.60882400  1
  C  1099  1  0.25453000  0.87922100  0.59861900  1
  C  1100  1  0.22172800  0.88742500  0.60893900  1
  C  1103  1  0.29741000  0.87383100  0.66225800  1
  C  1106  1  0.21275900  0.88787900  0.57667900  1
  C  1109  1  0.18821400  0.89674600  0.64224700  1
  C  1111  1  0.31726300  0.86101200  0.59824300  1
  C  1113  1  0.78519600  0.36952700  0.11146400  1
  C  1114  1  0.75023600  0.35940800  0.11803900  1
  C  1115  1  0.71700400  0.36975400  0.12569800  1
  C  1116  1  0.71531500  0.39118700  0.12744400  1
  C  1117  1  0.74992200  0.40138200  0.12075500  1
  C  1118  1  0.78274900  0.39107800  0.11256000  1
  C  1121  1  0.70714900  0.33774300  0.12618100  1
  C  1124  1  0.79168100  0.42333800  0.11211100  1
  C  1127  1  0.81640900  0.35781100  0.10328600  1
  C  1129  1  0.68729400  0.40174800  0.13904900  1
  C  1131  1  0.78529600  0.69923700  0.81971600  1
  C  1132  1  0.75030400  0.70935100  0.81317400  1
  C  1133  1  0.71706100  0.69900300  0.80553400  1
  C  1134  1  0.71537400  0.67756800  0.80379400  1
  C  1135  1  0.74997300  0.66737700  0.81050000  1
  C  1136  1  0.78279600  0.67768300  0.81869000  1
  C  1139  1  0.70718800  0.73101300  0.80505600  1
  C  1142  1  0.79158300  0.64541100  0.81932000  1
  C  1145  1  0.81645400  0.71095000  0.82794400  1
  C  1147  1  0.68734400  0.66700300  0.79219900  1
  C  1149  1  0.78527200  0.18029000  0.63047100  1
  C  1150  1  0.75027400  0.18682700  0.64058700  1
  C  1151  1  0.71703400  0.19448100  0.63024100  1
  C  1152  1  0.71545400  0.19630000  0.60881000  1
  C  1153  1  0.74998200  0.18952900  0.59860900  1
  C  1154  1  0.78278100  0.18131900  0.60892000  1
  C  1157  1  0.70714000  0.19491300  0.66225000  1
  C  1160  1  0.79155700  0.18067700  0.57664600  1
  C  1163  1  0.81642700  0.17205000  0.64218200  1
  C  1165  1  0.68732000  0.20783400  0.59824300  1
  C  1167  1  0.78525500  0.88852600  0.30076700  1
  C  1168  1  0.75029200  0.88194800  0.29064800  1
  C  1169  1  0.71706400  0.87428300  0.30099100  1
  C  1170  1  0.71546600  0.87248500  0.32241900  1
  C  1171  1  0.75000500  0.87923000  0.33262900  1
  C  1172  1  0.78281400  0.88743400  0.32231900  1
  C  1175  1  0.70716700  0.87384800  0.26898500  1
  C  1178  1  0.79174900  0.88790100  0.35457800  1
  C  1181  1  0.81645700  0.89671100  0.28905100  1
  C  1183  1  0.68736500  0.86094500  0.33300100  1
  C  1185  1  0.01051400  0.68718300  0.94434900  1
  C  1186  1  0.03462100  0.69738700  0.95886300  1
  C  1187  1  0.02771400  0.69632600  0.97991500  1
  C  1188  1  0.99534000  0.68554000  0.98825600  1
  C  1189  1  0.96968000  0.67659100  0.97369200  1
  C  1190  1  0.97684900  0.67746900  0.95266000  1
  C  1193  1  0.07967400  0.71367400  0.97376600  1
  C  1196  1  0.92418400  0.66077200  0.95875900  1
  C  1199  1  0.01991400  0.68882200  0.92363900  1
  C  1201  1  0.99240500  0.67935800  0.00854200  1
  C  1203  1  0.01055000  0.38162600  0.98688100  1
  C  1204  1  0.03461800  0.37139400  0.97236500  1
  C  1205  1  0.02769300  0.37244300  0.95131400  1
  C  1206  1  0.99531400  0.38322900  0.94297500  1
  C  1207  1  0.96966500  0.39218000  0.95754200  1
  C  1208  1  0.97682800  0.39129300  0.97857300  1
  C  1211  1  0.07964300  0.35508500  0.95745900  1
  C  1214  1  0.92401900  0.40788000  0.97248400  1
  C  1217  1  0.01978700  0.37992200  0.00761900  1
  C  1219  1  0.99236400  0.38940700  0.92269000  1
  C  1221  1  0.01056500  0.05565700  0.61837200  1
  C  1222  1  0.03463100  0.04114000  0.62860200  1
  C  1223  1  0.02773200  0.02008600  0.62754000  1
  C  1224  1  0.99545600  0.01176300  0.61665800  1
  C  1225  1  0.96969800  0.02632100  0.60778900  1
  C  1226  1  0.97686600  0.04735200  0.60867900  1
  C  1229  1  0.07962900  0.02624000  0.64493700  1
  C  1232  1  0.92402800  0.04126200  0.59211700  1
  C  1235  1  0.01989400  0.07637000  0.62008700  1
  C  1237  1  0.99240800  0.99145000  0.61057500  1
  C  1239  1  0.01050200  0.01311700  0.31282800  1
  C  1240  1  0.03460900  0.02763600  0.30262800  1
  C  1241  1  0.02771300  0.04868800  0.30369400  1
  C  1242  1  0.99539600  0.05700800  0.31454100  1
  C  1243  1  0.96966500  0.04245500  0.32344500  1
  C  1244  1  0.97684900  0.02142600  0.32255900  1
  C  1247  1  0.07960100  0.04254000  0.28629300  1
  C  1250  1  0.92412500  0.02751400  0.33921600  1
  C  1253  1  0.01976700  0.99237800  0.31116200  1
  C  1255  1  0.99233400  0.07731200  0.32065700  1
  C  1257  1  0.51039200  0.18722700  0.44431800  1
  C  1258  1  0.53452300  0.19739500  0.45885600  1
  C  1259  1  0.52765900  0.19633400  0.47992600  1
  C  1260  1  0.49530300  0.18556400  0.48832400  1
  C  1261  1  0.46966600  0.17661500  0.47373100  1
  C  1262  1  0.47677600  0.17750500  0.45267700  1
  C  1265  1  0.57962200  0.21367100  0.47374900  1
  C  1268  1  0.42415600  0.16078500  0.45880200  1
  C  1271  1  0.51980100  0.18888900  0.42357500  1
  C  1273  1  0.49240400  0.17934600  0.50864400  1
  C  1275  1  0.51050200  0.88158200  0.48691300  1
  C  1276  1  0.53459400  0.87138500  0.47237200  1
  C  1277  1  0.52771200  0.87243500  0.45130300  1
  C  1278  1  0.49535300  0.88320400  0.44290900  1
  C  1279  1  0.46972300  0.89215500  0.45750300  1
  C  1280  1  0.47682600  0.89125500  0.47855500  1
  C  1283  1  0.57966600  0.85508800  0.45747900  1
  C  1286  1  0.42406800  0.90786900  0.47243900  1
  C  1289  1  0.51975400  0.87985900  0.50768300  1
  C  1291  1  0.49243600  0.88941800  0.42258800  1
  C  1293  1  0.51045400  0.55568600  0.11841100  1
  C  1294  1  0.53454100  0.54114300  0.12860800  1
  C  1295  1  0.52768000  0.52007100  0.12754500  1
  C  1296  1  0.49542200  0.51169700  0.11668000  1
  C  1297  1  0.46968700  0.52628200  0.10781200  1
  C  1298  1  0.47680300  0.54733300  0.10871400  1
  C  1301  1  0.57958100  0.52625200  0.14493200  1
  C  1304  1  0.42400500  0.54122200  0.09212900  1
  C  1307  1  0.51980400  0.57643100  0.12014800  1
  C  1309  1  0.49240100  0.49134900  0.11056200  1
  C  1311  1  0.51044600  0.51308200  0.81278600  1
  C  1312  1  0.53458200  0.52762600  0.80262100  1
  C  1313  1  0.52773300  0.54869600  0.80368900  1
  C  1314  1  0.49543900  0.55707300  0.81451900  1
  C  1315  1  0.46972300  0.54249400  0.82342300  1
  C  1316  1  0.47684100  0.52144300  0.82252400  1
  C  1319  1  0.57962200  0.54251400  0.78630000  1
  C  1322  1  0.42416800  0.52756000  0.83920400  1
  C  1325  1  0.51971200  0.49231200  0.81109600  1
  C  1327  1  0.49241000  0.57741100  0.82066700  1
  N  44  1  0.15026300  0.70895900  0.10258500  1
  N  45  1  0.00220400  0.75103200  0.16389700  1
  N  46  1  0.99605300  0.68899300  0.02547400  1
  N  47  1  0.85442800  0.70902200  0.10247300  1
  N  91  1  0.15023400  0.35981400  0.82863900  1
  N  92  1  0.00217500  0.31771400  0.76734100  1
  N  93  1  0.99601800  0.37977100  0.90575900  1
  N  94  1  0.85439900  0.35973300  0.82877300  1
  N  138  1  0.15025000  0.89740800  0.64018900  1
  N  139  1  0.00217800  0.83610300  0.68228400  1
  N  140  1  0.99604700  0.97455200  0.62026800  1
  N  141  1  0.85441600  0.89754200  0.64027000  1
  N  185  1  0.15020200  0.17133900  0.29103500  1
  N  186  1  0.00214800  0.23265200  0.24891600  1
  N  187  1  0.99597600  0.09422400  0.31098800  1
  N  188  1  0.85437500  0.17123000  0.29097600  1
  N  232  1  0.85439900  0.70879200  0.82868500  1
  N  233  1  0.00455600  0.75035400  0.76697400  1
  N  234  1  0.99223100  0.69201100  0.91041100  1
  N  235  1  0.14999400  0.70876200  0.82874600  1
  N  279  1  0.85435100  0.35998700  0.10256400  1
  N  280  1  0.00269300  0.31858400  0.16427800  1
  N  281  1  0.99214500  0.37679100  0.02086600  1
  N  282  1  0.14995600  0.35999600  0.10248000  1
  N  326  1  0.85440200  0.89743300  0.29122100  1
  N  327  1  0.00196800  0.83572200  0.24982400  1
  N  328  1  0.99212400  0.97913500  0.30802100  1
  N  329  1  0.15001100  0.89752200  0.29122900  1
  N  373  1  0.85437500  0.17131500  0.64002400  1
  N  374  1  0.00001200  0.23302900  0.68156700  1
  N  375  1  0.99218000  0.08958800  0.62324200  1
  N  376  1  0.14998100  0.17125500  0.63999800  1
  N  420  1  0.64917700  0.20787400  0.59809700  1
  N  421  1  0.50217900  0.25129900  0.66401300  1
  N  422  1  0.49601000  0.18880400  0.52570100  1
  N  423  1  0.35541800  0.20789200  0.59798300  1
  N  467  1  0.64921900  0.86090300  0.33315800  1
  N  468  1  0.50220600  0.81747500  0.26722500  1
  N  469  1  0.49605200  0.87995800  0.40553100  1
  N  470  1  0.35546500  0.86087300  0.33324000  1
  N  514  1  0.64914800  0.40191900  0.13912000  1
  N  515  1  0.50214700  0.33598700  0.18242400  1
  N  516  1  0.49600100  0.47432300  0.12007800  1
  N  517  1  0.35540900  0.40201800  0.13914500  1
  N  561  1  0.64919800  0.66684800  0.79212300  1
  N  562  1  0.50217300  0.73277900  0.74870300  1
  N  563  1  0.49601300  0.59444700  0.81116900  1
  N  564  1  0.35544400  0.66675000  0.79208800  1
  N  608  1  0.35536700  0.20765000  0.33317200  1
  N  609  1  0.50246000  0.25024400  0.26680400  1
  N  610  1  0.49232700  0.19177500  0.41013400  1
  N  611  1  0.64897000  0.20761200  0.33323900  1
  N  655  1  0.35540600  0.86110700  0.59805200  1
  N  656  1  0.50530900  0.81819900  0.66441200  1
  N  657  1  0.49231800  0.87702500  0.52114000  1
  N  658  1  0.64899700  0.86114900  0.59800600  1
  N  702  1  0.35540600  0.40195000  0.79231900  1
  N  703  1  0.49988900  0.33558100  0.74958100  1
  N  704  1  0.49226200  0.47886400  0.80826000  1
  N  705  1  0.64896700  0.40200700  0.79235500  1
  N  749  1  0.35544100  0.66681100  0.13891200  1
  N  750  1  0.50184500  0.73319500  0.18148000  1
  N  751  1  0.49230600  0.58986500  0.12300600  1
  N  752  1  0.64900600  0.66675800  0.13888000  1
  N  759  1  0.00224900  0.77885800  0.24947900  1
  N  762  1  0.00229300  0.79768400  0.16987000  1
  N  777  1  0.00222800  0.28990500  0.68175400  1
  N  780  1  0.00229200  0.27106200  0.76134100  1
  N  795  1  0.00221000  0.75051700  0.71009600  1
  N  798  1  0.00222500  0.83010100  0.72894200  1
  N  813  1  0.00218700  0.31825200  0.22115000  1
  N  816  1  0.00222200  0.23864200  0.20232800  1
  N  831  1  0.50222900  0.27885500  0.74953200  1
  N  834  1  0.50230300  0.29762900  0.66992400  1
  N  849  1  0.50225000  0.78991500  0.18170400  1
  N  852  1  0.50230000  0.77115500  0.26133700  1
  N  867  1  0.50218800  0.25046800  0.21008400  1
  N  870  1  0.50223200  0.33010100  0.22884500  1
  N  885  1  0.50219700  0.81829500  0.72114000  1
  N  888  1  0.50220600  0.73871000  0.70234900  1
  N  903  1  0.69055700  0.71307000  0.13085400  1
  N  906  1  0.80804500  0.66328800  0.10681700  1
  N  921  1  0.69051800  0.35569300  0.80039200  1
  N  924  1  0.80798300  0.40547700  0.82444400  1
  N  939  1  0.69055400  0.86913600  0.64431100  1
  N  942  1  0.80801000  0.89323000  0.59452800  1
  N  957  1  0.69050700  0.19962400  0.28692900  1
  N  960  1  0.80799800  0.17555600  0.33670700  1
  N  975  1  0.31393400  0.71305600  0.80036500  1
  N  978  1  0.19649400  0.66326000  0.82443000  1
  N  993  1  0.31391100  0.35571100  0.13085900  1
  N  996  1  0.19648900  0.40551000  0.10677600  1
  N  1011  1  0.31395800  0.86911900  0.28694700  1
  N  1014  1  0.19653700  0.89323900  0.33673900  1
  N  1029  1  0.31392900  0.19964300  0.64429300  1
  N  1032  1  0.19647700  0.17556000  0.59449900  1
  N  1047  1  0.31398200  0.35569900  0.80034800  1
  N  1050  1  0.19652100  0.40547900  0.82445500  1
  N  1065  1  0.31402000  0.71306400  0.13087800  1
  N  1068  1  0.19658300  0.66328300  0.10675400  1
  N  1083  1  0.31394300  0.19966100  0.28693400  1
  N  1086  1  0.19650500  0.17549600  0.33670700  1
  N  1101  1  0.31400000  0.86910300  0.64430600  1
  N  1104  1  0.19653200  0.89323300  0.59452700  1
  N  1119  1  0.69053000  0.35569500  0.13088600  1
  N  1122  1  0.80793900  0.40549700  0.10676300  1
  N  1137  1  0.69056600  0.71305800  0.80036300  1
  N  1140  1  0.80797700  0.66326700  0.82450700  1
  N  1155  1  0.69055400  0.19966100  0.64430100  1
  N  1158  1  0.80794200  0.17548100  0.59450200  1
  N  1173  1  0.69057500  0.86910900  0.28693400  1
  N  1176  1  0.80799800  0.89324800  0.33673500  1
  N  1191  1  0.05701200  0.70644200  0.98891700  1
  N  1194  1  0.94767900  0.66730200  0.94362700  1
  N  1209  1  0.05697100  0.36231200  0.94230900  1
  N  1212  1  0.94763200  0.40143900  0.98760800  1
  N  1227  1  0.05702900  0.01108600  0.63765900  1
  N  1230  1  0.94762900  0.05638800  0.59856900  1
  N  1245  1  0.05698500  0.05769200  0.29355900  1
  N  1248  1  0.94762900  0.01238600  0.33268100  1
  N  1263  1  0.55698200  0.20644600  0.48891000  1
  N  1266  1  0.44760100  0.16733400  0.44365800  1
  N  1281  1  0.55701500  0.86230700  0.44231700  1
  N  1284  1  0.44762700  0.90140800  0.48757600  1
  N  1299  1  0.55699700  0.51108800  0.13766300  1
  N  1302  1  0.44755900  0.55635700  0.09859800  1
  N  1317  1  0.55703000  0.55767800  0.79355700  1
  N  1320  1  0.44761800  0.51241800  0.83265300  1
  O  760  1  0.00224600  0.75091500  0.22852800  1
  O  763  1  0.00220700  0.82475600  0.19010000  1
  O  778  1  0.00220700  0.31784300  0.70270900  1
  O  781  1  0.00181700  0.24395000  0.74104800  1
  O  796  1  0.00222800  0.77147300  0.68216000  1
  O  799  1  0.00267800  0.80979500  0.75606100  1
  O  814  1  0.00218900  0.29730000  0.24909200  1
  O  817  1  0.00230500  0.25887100  0.17525000  1
  O  832  1  0.50220600  0.25088700  0.72861300  1
  O  835  1  0.50179400  0.32475900  0.69016200  1
  O  850  1  0.50224400  0.81788500  0.20262000  1
  O  853  1  0.50218500  0.74406800  0.24116700  1
  O  868  1  0.50218800  0.27138400  0.18211600  1
  O  871  1  0.50226200  0.30993300  0.25592900  1
  O  886  1  0.50222900  0.79737200  0.74910400  1
  O  889  1  0.50279400  0.75899200  0.67519000  1
  O  904  1  0.74450500  0.72990300  0.11829800  1
  O  907  1  0.75569800  0.64687900  0.12131000  1
  O  922  1  0.74448700  0.33886200  0.81292400  1
  O  925  1  0.75568000  0.42188300  0.80991400  1
  O  940  1  0.74449300  0.88170900  0.66113800  1
  O  943  1  0.75575400  0.87865900  0.57811700  1
  O  958  1  0.74443400  0.18704200  0.27009900  1
  O  961  1  0.75568600  0.19007600  0.35312700  1
  O  976  1  0.25998000  0.72987300  0.81293700  1
  O  979  1  0.24883900  0.64685000  0.80992700  1
  O  994  1  0.25993400  0.33889500  0.11830900  1
  O  997  1  0.24878300  0.42191600  0.12131800  1
  O  1012  1  0.26000900  0.88170500  0.27013300  1
  O  1015  1  0.24878800  0.87866300  0.35315300  1
  O  1030  1  0.25998900  0.18704800  0.66110700  1
  O  1033  1  0.24879600  0.19007800  0.57807900  1
  O  1048  1  0.26005600  0.33886500  0.81292100  1
  O  1051  1  0.24881000  0.42189700  0.80991700  1
  O  1066  1  0.26007200  0.72989800  0.11832900  1
  O  1069  1  0.24882300  0.64686700  0.12132900  1
  O  1084  1  0.26003200  0.18706900  0.27010000  1
  O  1087  1  0.24869400  0.19011000  0.35313100  1
  O  1102  1  0.26009100  0.88170600  0.66113600  1
  O  1105  1  0.24879200  0.87867400  0.57809800  1
  O  1120  1  0.74446100  0.33887100  0.11829500  1
  O  1123  1  0.75564400  0.42190400  0.12131100  1
  O  1138  1  0.74451100  0.72988800  0.81292600  1
  O  1141  1  0.75573900  0.64685800  0.80992400  1
  O  1156  1  0.74447300  0.18705400  0.66112200  1
  O  1159  1  0.75574200  0.19010400  0.57809200  1
  O  1174  1  0.74449000  0.88171800  0.27011200  1
  O  1177  1  0.75572700  0.87868600  0.35315200  1
  O  1192  1  0.06750000  0.70862000  0.95461400  1
  O  1195  1  0.93654600  0.66563000  0.97795900  1
  O  1210  1  0.06748100  0.36014600  0.97661000  1
  O  1213  1  0.93651600  0.40313100  0.95327800  1
  O  1228  1  0.06746700  0.04539000  0.63986900  1
  O  1231  1  0.93657200  0.02205600  0.59682500  1
  O  1246  1  0.06743000  0.02338700  0.29135000  1
  O  1249  1  0.93650700  0.04671800  0.33438600  1
  O  1264  1  0.56741200  0.20861900  0.45460000  1
  O  1267  1  0.43655000  0.16564100  0.47800000  1
  O  1282  1  0.56746800  0.86014800  0.47662400  1
  O  1285  1  0.43659500  0.90312000  0.45323700  1
  O  1300  1  0.56738500  0.54539700  0.13986700  1
  O  1303  1  0.43657700  0.52201700  0.09683500  1
  O  1318  1  0.56741200  0.52336700  0.79135300  1
  O  1321  1  0.43658600  0.54676000  0.83437800  1
