# generated using pymatgen
data_H34C55(N3O2)2
_symmetry_space_group_name_H-M   'P 1'
_cell_length_a   53.62360000
_cell_length_b   53.61980000
_cell_length_c   53.69490000
_cell_angle_alpha   90.00000000
_cell_angle_beta   90.00000000
_cell_angle_gamma   90.00000000
_symmetry_Int_Tables_number   1
_chemical_formula_structural   H34C55(N3O2)2
_chemical_formula_sum   'H408 C660 N72 O48'
_cell_volume   154388.23221873
_cell_formula_units_Z   12
loop_
 _symmetry_equiv_pos_site_id
 _symmetry_equiv_pos_as_xyz
  1  'x, y, z'
loop_
 _atom_site_type_symbol
 _atom_site_label
 _atom_site_symmetry_multiplicity
 _atom_site_fract_x
 _atom_site_fract_y
 _atom_site_fract_z
 _atom_site_occupancy
  H  3  1  0.60535700  0.91651900  0.73029500  1
  H  18  1  0.50055600  0.95228500  0.76562600  1
  H  19  1  0.45436200  0.90417300  0.73303400  1
  H  20  1  0.46566300  0.86759100  0.80149300  1
  H  21  1  0.46002500  0.90580500  0.82286700  1
  H  22  1  0.45149000  0.99915800  0.73290600  1
  H  23  1  0.44605000  0.99776400  0.82276100  1
  H  26  1  0.43658900  0.95033700  0.81709900  1
  H  27  1  0.46951300  0.95322400  0.81704800  1
  H  29  1  0.54275700  0.93975800  0.76567400  1
  H  31  1  0.46691200  0.86230800  0.73286300  1
  H  35  1  0.40542200  0.95111400  0.76572100  1
  H  37  1  0.36319500  0.96344200  0.76585900  1
  H  40  1  0.30076700  0.98711400  0.73045700  1
  H  42  1  0.72036900  0.96785900  0.58973400  1
  H  43  1  0.65179500  0.96610900  0.58443000  1
  H  55  1  0.63462400  0.92282300  0.69732100  1
  H  56  1  0.66662300  0.92680300  0.61888200  1
  H  57  1  0.59372400  0.98572200  0.67319100  1
  H  58  1  0.63267300  0.92239000  0.64756400  1
  H  64  1  0.53717200  0.93915900  0.69756900  1
  H  65  1  0.49888300  0.94406600  0.67596900  1
  H  67  1  0.45421000  0.96807100  0.68158100  1
  H  68  1  0.45159000  0.93512500  0.68162900  1
  H  69  1  0.56503500  0.97990100  0.70706900  1
  H  72  1  0.40690700  0.95908700  0.67604000  1
  H  73  1  0.36865700  0.96401900  0.69769800  1
  H  77  1  0.34062400  0.92340600  0.70732200  1
  H  78  1  0.31194100  0.91779100  0.67340500  1
  H  82  1  0.25454100  0.93813200  0.58450200  1
  H  84  1  0.18589800  0.93656100  0.58937300  1
  H  91  1  0.22681800  0.90415300  0.64403700  1
  H  92  1  0.27149600  0.98102000  0.69744200  1
  H  93  1  0.23970600  0.97728500  0.61888000  1
  H  94  1  0.27354700  0.98145000  0.64772100  1
  H  105  1  0.72068300  0.95040800  0.45333500  1
  H  106  1  0.72038100  0.95412400  0.54819000  1
  H  107  1  0.77770200  0.99810400  0.50810800  1
  H  108  1  0.77743600  0.90600800  0.49372500  1
  H  109  1  0.75566700  0.86777600  0.48912800  1
  H  111  1  0.77200200  0.95326700  0.48440000  1
  H  112  1  0.77194000  0.95089100  0.51731700  1
  H  127  1  0.63044100  0.96001700  0.54629400  1
  H  128  1  0.63070400  0.94507900  0.45462400  1
  H  129  1  0.68763400  0.90479300  0.50172000  1
  H  132  1  0.63626800  0.93605400  0.50207000  1
  H  133  1  0.63637300  0.96895300  0.49889100  1
  H  135  1  0.68734100  0.86243000  0.49008900  1
  H  158  1  0.27615300  0.94419700  0.54651200  1
  H  159  1  0.27651300  0.95916000  0.45483100  1
  H  160  1  0.18654800  0.95372800  0.45293500  1
  H  161  1  0.18620500  0.95008200  0.54778600  1
  H  162  1  0.21902500  0.90426500  0.49948100  1
  H  163  1  0.15079200  0.86761700  0.51208000  1
  H  164  1  0.21920800  0.99938700  0.50144600  1
  H  167  1  0.27062200  0.96814700  0.50224700  1
  H  168  1  0.27055600  0.93525000  0.49905700  1
  H  171  1  0.21908800  0.86193900  0.51124800  1
  H  172  1  0.12922500  0.90595900  0.50738000  1
  H  173  1  0.12945600  0.99804500  0.49295200  1
  H  174  1  0.13499300  0.95079000  0.48373300  1
  H  175  1  0.13488700  0.95319000  0.51664900  1
  H  176  1  0.72093100  0.93701800  0.41173600  1
  H  177  1  0.65226700  0.93893400  0.41661900  1
  H  185  1  0.67976800  0.90433900  0.35742700  1
  H  190  1  0.63565300  0.98104000  0.30331900  1
  H  191  1  0.66733300  0.97777800  0.38190200  1
  H  192  1  0.59476800  0.91825800  0.32777800  1
  H  193  1  0.63354200  0.98189700  0.35299800  1
  H  202  1  0.53835100  0.96457400  0.30310900  1
  H  203  1  0.50008800  0.95978600  0.32477600  1
  H  205  1  0.45540000  0.93581900  0.31927800  1
  H  206  1  0.45279300  0.96876600  0.31918500  1
  H  207  1  0.56616100  0.92380800  0.29378800  1
  H  210  1  0.40810600  0.94483800  0.32489500  1
  H  211  1  0.36980700  0.93995000  0.30332100  1
  H  215  1  0.34174700  0.98045200  0.29391400  1
  H  216  1  0.31306700  0.98599600  0.32784300  1
  H  218  1  0.25519500  0.96530700  0.41668800  1
  H  220  1  0.18657600  0.96714600  0.41134400  1
  H  227  1  0.22790500  0.99971900  0.35710500  1
  H  228  1  0.27251600  0.92292900  0.30356500  1
  H  229  1  0.24051500  0.92645100  0.38199500  1
  H  230  1  0.27444800  0.92232000  0.35325700  1
  H  234  1  0.60645300  0.98708800  0.27023600  1
  H  249  1  0.50160200  0.95140500  0.23513200  1
  H  250  1  0.45549700  0.99964600  0.26776800  1
  H  251  1  0.46101500  0.99795500  0.17792800  1
  H  252  1  0.45256200  0.90463700  0.26793800  1
  H  253  1  0.44693200  0.90603500  0.17809300  1
  H  254  1  0.44117100  0.86790100  0.19957400  1
  H  257  1  0.43755400  0.95345900  0.18375500  1
  H  258  1  0.47047600  0.95054200  0.18375900  1
  H  261  1  0.54386900  0.96361900  0.23497000  1
  H  262  1  0.43965900  0.86283100  0.26816500  1
  H  266  1  0.40645000  0.95274100  0.23521000  1
  H  268  1  0.36418100  0.94060800  0.23515500  1
  H  271  1  0.30178900  0.91689400  0.27054900  1
  H  278  1  0.44656300  0.77626000  0.95423400  1
  H  279  1  0.44180900  0.75444500  0.91608900  1
  H  280  1  0.47048300  0.77088700  0.99891200  1
  H  283  1  0.48225200  0.74512400  0.88793300  1
  H  284  1  0.48735400  0.77906900  0.85916800  1
  H  285  1  0.40663400  0.71934800  0.99883800  1
  H  286  1  0.36487300  0.71945100  0.98591800  1
  H  294  1  0.50021400  0.80834100  0.77396200  1
  H  302  1  0.42418500  0.75420600  0.81916900  1
  H  303  1  0.42684600  0.83268700  0.78705400  1
  H  304  1  0.42320400  0.80394600  0.82102800  1
  H  305  1  0.41859000  0.72117400  0.84852800  1
  H  306  1  0.94168900  0.71759900  0.59031100  1
  H  314  1  0.95246300  0.71736700  0.45309500  1
  H  315  1  0.95389000  0.71742500  0.54810000  1
  H  316  1  0.86911800  0.75336500  0.51352500  1
  H  317  1  0.90733100  0.77472900  0.50768100  1
  H  319  1  0.95178500  0.76885600  0.48412000  1
  H  320  1  0.95475200  0.76887800  0.51699300  1
  H  322  1  0.99924100  0.77450300  0.49347700  1
  H  329  1  0.80965500  0.72581200  0.54802600  1
  H  336  1  0.75572700  0.77080100  0.47179200  1
  H  337  1  0.74619800  0.83972800  0.52963100  1
  H  338  1  0.83428100  0.73886700  0.47483800  1
  H  339  1  0.78020100  0.81103200  0.53491700  1
  H  340  1  0.80546600  0.77280400  0.47102200  1
  H  344  1  0.72263300  0.80009300  0.46601800  1
  H  350  1  0.15075100  0.77033900  0.52965000  1
  H  351  1  0.18380000  0.79968800  0.53538000  1
  H  352  1  0.15999700  0.83936000  0.47188300  1
  H  357  1  0.03752500  0.75295900  0.48772600  1
  H  364  1  0.09673900  0.72538500  0.45341400  1
  H  367  1  0.07225200  0.73820100  0.52669200  1
  H  368  1  0.12602800  0.81061300  0.46665100  1
  H  369  1  0.10101700  0.77218100  0.53053500  1
  H  372  1  0.96453400  0.71745900  0.41089200  1
  H  380  1  0.48370900  0.75491900  0.18209600  1
  H  381  1  0.48042800  0.83329800  0.21448600  1
  H  382  1  0.48452200  0.80467700  0.18046200  1
  H  384  1  0.48967600  0.72200900  0.15267900  1
  H  388  1  0.40703200  0.80861400  0.22678100  1
  H  393  1  0.50162200  0.71947300  0.00211400  1
  H  394  1  0.43753900  0.77081400  0.00165800  1
  H  395  1  0.54332800  0.71971900  0.01536500  1
  H  401  1  0.46649800  0.75509600  0.08457400  1
  H  402  1  0.46153400  0.77662900  0.04628400  1
  H  405  1  0.42629200  0.74588500  0.11278700  1
  H  406  1  0.42082800  0.77971800  0.14161100  1
  H  411  1  0.65113500  0.63366100  0.97060500  1
  H  412  1  0.68411700  0.60430300  0.96452600  1
  H  413  1  0.57254500  0.66567200  0.97459900  1
  H  414  1  0.60132300  0.63174100  0.97043200  1
  H  417  1  0.45494100  0.68648700  0.95301900  1
  H  418  1  0.45573800  0.63512400  0.98429800  1
  H  420  1  0.44295200  0.68612700  0.91080500  1
  H  429  1  0.31052900  0.67844300  0.95308700  1
  H  435  1  0.40828700  0.62936600  0.99352800  1
  H  436  1  0.37010800  0.65076100  0.98758400  1
  H  437  1  0.28101200  0.59326400  0.96619400  1
  H  445  1  0.00113200  0.59555400  0.72642300  1
  H  447  1  0.94079000  0.64935300  0.58482600  1
  H  458  1  0.92420200  0.64936600  0.68209500  1
  H  459  1  0.91815100  0.68239000  0.65281800  1
  H  460  1  0.98144900  0.65869100  0.61268200  1
  H  461  1  0.98700600  0.62476000  0.64137400  1
  H  462  1  0.92342600  0.59957300  0.68020200  1
  H  480  1  0.94552600  0.62765600  0.54660900  1
  H  481  1  0.96031800  0.62755500  0.45470400  1
  H  482  1  0.90558000  0.68476000  0.50216700  1
  H  485  1  0.96940500  0.63316500  0.50192700  1
  H  486  1  0.93645700  0.63325700  0.49937500  1
  H  488  1  0.86380700  0.68468000  0.51506000  1
  H  492  1  0.00072900  0.68453400  0.49909800  1
  H  494  1  0.04254700  0.68424400  0.48634400  1
  H  495  1  0.96520600  0.64917600  0.41646600  1
  H  506  1  0.98278600  0.64925600  0.31926500  1
  H  507  1  0.98862300  0.68221600  0.34865700  1
  H  508  1  0.92495900  0.65852000  0.38820400  1
  H  509  1  0.91961200  0.62464200  0.35940800  1
  H  510  1  0.98348900  0.59948900  0.32098400  1
  H  518  1  0.90624300  0.59558400  0.27426100  1
  H  526  1  0.62726100  0.59356600  0.03420600  1
  H  530  1  0.59815800  0.67882000  0.04759900  1
  H  541  1  0.53828400  0.65107300  0.01402400  1
  H  542  1  0.50016200  0.62953400  0.00818900  1
  H  543  1  0.45350600  0.68683600  0.04816800  1
  H  545  1  0.45270900  0.63526200  0.01732900  1
  H  547  1  0.46591400  0.68686200  0.09028400  1
  H  552  1  0.33537300  0.66527800  0.02634500  1
  H  553  1  0.30651400  0.63138600  0.03022400  1
  H  557  1  0.25677900  0.63341700  0.02962300  1
  H  558  1  0.22369100  0.60413100  0.03547100  1
  H  564  1  0.75472200  0.46514900  0.91587200  1
  H  565  1  0.77637300  0.45930800  0.95386400  1
  H  568  1  0.77084300  0.43571000  0.99832100  1
  H  569  1  0.71961200  0.54198300  0.98837600  1
  H  576  1  0.65134400  0.53657400  0.98804300  1
  H  577  1  0.62964800  0.49834600  0.99305600  1
  H  578  1  0.68640500  0.45374100  0.95279500  1
  H  579  1  0.63512500  0.45104600  0.98404100  1
  H  581  1  0.68601000  0.46670600  0.91108700  1
  H  591  1  0.18845400  0.49954500  0.99936500  1
  H  592  1  0.22113400  0.45059100  0.95248900  1
  H  593  1  0.15252200  0.43916200  0.91612000  1
  H  594  1  0.27267500  0.45346700  0.98328100  1
  H  596  1  0.22120300  0.43780700  0.91073600  1
  H  597  1  0.24701600  0.56457300  0.97156200  1
  H  600  1  0.16701800  0.47812200  0.88133600  1
  H  605  1  0.13119000  0.44483000  0.95431900  1
  H  606  1  0.13704600  0.46832000  0.99877100  1
  H  618  1  0.95503800  0.49953000  0.76751100  1
  H  619  1  0.90566800  0.45311200  0.73472200  1
  H  620  1  0.86881000  0.44016600  0.80268100  1
  H  621  1  0.90708500  0.44475000  0.82436400  1
  H  624  1  0.95195200  0.46844400  0.81885600  1
  H  625  1  0.95431800  0.43547900  0.81881000  1
  H  627  1  0.96843500  0.54119700  0.76769700  1
  H  629  1  0.86336500  0.44118800  0.73449200  1
  H  632  1  0.99918400  0.45908000  0.82448200  1
  H  634  1  0.72702300  0.49959500  0.85679700  1
  H  645  1  0.84082900  0.48076100  0.79336800  1
  H  646  1  0.81213700  0.48611500  0.82731800  1
  H  651  1  0.13486600  0.48110400  0.80297200  1
  H  652  1  0.13299200  0.48195800  0.85266700  1
  H  656  1  0.00093600  0.45103100  0.73481100  1
  H  657  1  0.03767700  0.46365100  0.80290100  1
  H  659  1  0.04329300  0.46266300  0.73468200  1
  H  667  1  0.10554100  0.48684300  0.76994600  1
  H  669  1  0.92760300  0.57079800  0.71409000  1
  H  673  1  0.96070200  0.49803600  0.67767000  1
  H  674  1  0.96675100  0.53614700  0.69914100  1
  H  676  1  0.96969100  0.45051300  0.68337200  1
  H  677  1  0.93679800  0.45373500  0.68334800  1
  H  679  1  0.97951900  0.57077800  0.28702000  1
  H  683  1  0.94669500  0.49799000  0.32311400  1
  H  684  1  0.94054800  0.53609100  0.30167700  1
  H  686  1  0.93784000  0.45047900  0.31737800  1
  H  687  1  0.97072900  0.45375000  0.31740800  1
  H  700  1  0.95240300  0.49957500  0.23327900  1
  H  701  1  0.90676200  0.45092500  0.26596000  1
  H  702  1  0.90830200  0.45907500  0.17630000  1
  H  703  1  0.86997400  0.46351700  0.19789000  1
  H  706  1  0.95549300  0.46853400  0.18190900  1
  H  707  1  0.95321500  0.43556100  0.18193000  1
  H  710  1  0.93896300  0.54124000  0.23313400  1
  H  711  1  0.86433400  0.46234600  0.26610900  1
  H  721  1  0.77303500  0.48093800  0.19746900  1
  H  722  1  0.80220100  0.48660800  0.23064800  1
  H  723  1  0.77516100  0.48181300  0.14779400  1
  H  730  1  0.18072300  0.49925800  0.14327800  1
  H  731  1  0.00058400  0.44504300  0.17633700  1
  H  736  1  0.00205300  0.45328600  0.26599200  1
  H  737  1  0.03889900  0.44064900  0.19795900  1
  H  739  1  0.04449700  0.44197700  0.26619300  1
  H  747  1  0.06697100  0.48115800  0.20701800  1
  H  748  1  0.09558900  0.48623100  0.17296100  1
  H  757  1  0.71947800  0.49976500  0.00083800  1
  H  758  1  0.77684300  0.44510800  0.04583100  1
  H  759  1  0.75558000  0.43937300  0.08406400  1
  H  760  1  0.77088300  0.46863100  0.00141900  1
  H  763  1  0.74123300  0.47807900  0.11899600  1
  H  768  1  0.68689200  0.45072900  0.04780900  1
  H  770  1  0.63530800  0.45362500  0.01710800  1
  H  772  1  0.68689500  0.43796500  0.08955200  1
  H  773  1  0.66114700  0.56479100  0.02859500  1
  H  779  1  0.18826400  0.54186000  0.01144200  1
  H  791  1  0.25656400  0.53641200  0.01214600  1
  H  792  1  0.27827100  0.49817400  0.00729100  1
  H  793  1  0.22145300  0.45347200  0.04751700  1
  H  794  1  0.15302200  0.46445700  0.08437700  1
  H  795  1  0.27279800  0.45084800  0.01634600  1
  H  797  1  0.22177200  0.46591900  0.08935300  1
  H  801  1  0.13712400  0.43539300  0.00181200  1
  H  802  1  0.13147000  0.45877300  0.04630800  1
  H  803  1  0.73976200  0.42619100  0.88122900  1
  H  804  1  0.71931000  0.40461900  0.99938700  1
  H  808  1  0.66053800  0.34033700  0.97187300  1
  H  809  1  0.62661200  0.31166500  0.96600300  1
  H  812  1  0.18864800  0.36218700  0.98812800  1
  H  814  1  0.22384000  0.29938400  0.96515700  1
  H  819  1  0.27841800  0.40617800  0.99218600  1
  H  820  1  0.25682200  0.36785700  0.98735100  1
  H  825  1  0.95128400  0.40456100  0.76741600  1
  H  827  1  0.93753200  0.36298900  0.76748800  1
  H  830  1  0.90519700  0.30850400  0.72621400  1
  H  832  1  0.77162100  0.42315300  0.80270000  1
  H  833  1  0.80090900  0.41730700  0.76966000  1
  H  834  1  0.77362600  0.42225800  0.85238300  1
  H  836  1  0.17989700  0.40478900  0.85677500  1
  H  841  1  0.06585500  0.42325600  0.79369000  1
  H  842  1  0.09458900  0.41800800  0.82762500  1
  H  843  1  0.97848600  0.33350400  0.71390400  1
  H  847  1  0.93945200  0.36811600  0.69897700  1
  H  848  1  0.94567900  0.40623800  0.67757500  1
  H  852  1  0.98278600  0.30470600  0.68005200  1
  H  855  1  0.96803300  0.36811200  0.30176600  1
  H  856  1  0.96185100  0.40624000  0.32316700  1
  H  861  1  0.92451000  0.30496900  0.32088900  1
  H  862  1  0.92884100  0.33366000  0.28695100  1
  H  867  1  0.95628300  0.40457600  0.23332200  1
  H  869  1  0.96983800  0.36292400  0.23325500  1
  H  872  1  0.84188100  0.42294800  0.20709000  1
  H  873  1  0.81331400  0.41776500  0.17300500  1
  H  879  1  0.72809500  0.40475700  0.14344400  1
  H  880  1  0.13593300  0.42324300  0.19778800  1
  H  881  1  0.10671000  0.41767000  0.23093300  1
  H  882  1  0.00217100  0.30835600  0.27454200  1
  H  883  1  0.13387800  0.42210000  0.14815000  1
  H  884  1  0.71936800  0.36239800  0.01204200  1
  H  890  1  0.62957200  0.40634600  0.00812000  1
  H  891  1  0.65119100  0.36802100  0.01285200  1
  H  895  1  0.68404400  0.29963600  0.03499600  1
  H  897  1  0.28152000  0.31140700  0.03394000  1
  H  899  1  0.18866900  0.40439200  0.00080300  1
  H  903  1  0.24760700  0.34011100  0.02816500  1
  H  904  1  0.16776000  0.42575100  0.11929100  1
  H  912  1  0.59751500  0.22656900  0.95130900  1
  H  924  1  0.53784200  0.25353700  0.98535600  1
  H  925  1  0.49976300  0.27495100  0.99188400  1
  H  926  1  0.45251700  0.21759100  0.95245700  1
  H  927  1  0.46494100  0.14942400  0.91567100  1
  H  928  1  0.45221100  0.26911000  0.98342600  1
  H  930  1  0.46361500  0.21775500  0.91003300  1
  H  936  1  0.50156500  0.18499100  0.99759800  1
  H  938  1  0.54300000  0.18499900  0.98329200  1
  H  939  1  0.42442100  0.15841500  0.88774600  1
  H  942  1  0.33538600  0.23803100  0.97504800  1
  H  943  1  0.30661300  0.27193100  0.97059700  1
  H  945  1  0.25683500  0.27009100  0.97144100  1
  H  948  1  0.48191700  0.14947500  0.81849100  1
  H  949  1  0.48763600  0.18256700  0.84775600  1
  H  952  1  0.91933200  0.27927200  0.64120100  1
  H  955  1  0.96583700  0.25478100  0.58480800  1
  H  957  1  0.96496300  0.18654300  0.59025000  1
  H  964  1  0.98216700  0.25489700  0.68201400  1
  H  965  1  0.98834100  0.22185100  0.65278600  1
  H  966  1  0.92501900  0.24532200  0.61255400  1
  H  989  1  0.96118100  0.27649900  0.54659600  1
  H  990  1  0.94662000  0.27665300  0.45466900  1
  H  991  1  0.95445200  0.18684000  0.45302600  1
  H  992  1  0.95276600  0.18673300  0.54803000  1
  H  993  1  0.90622000  0.21963300  0.49886900  1
  H  994  1  0.86949200  0.15120500  0.48729400  1
  H  997  1  0.93740700  0.27102700  0.50184800  1
  H  998  1  0.97036300  0.27091100  0.49939900  1
  H  1001  1  0.86449300  0.21988700  0.48573300  1
  H  1005  1  0.81022500  0.17858100  0.45308400  1
  H  1006  1  0.83481400  0.16616200  0.52639600  1
  H  1015  1  0.00136300  0.21942100  0.50229200  1
  H  1016  1  0.03776100  0.15083200  0.51392000  1
  H  1018  1  0.04302000  0.21947100  0.51566500  1
  H  1022  1  0.09728900  0.17817700  0.54831700  1
  H  1023  1  0.07253100  0.16556600  0.47509400  1
  H  1026  1  0.98799500  0.27940800  0.35964700  1
  H  1027  1  0.94182000  0.25505900  0.41639900  1
  H  1029  1  0.94230500  0.18680200  0.41081600  1
  H  1036  1  0.92492800  0.25516300  0.31911600  1
  H  1037  1  0.91874900  0.22220300  0.34843900  1
  H  1038  1  0.98229900  0.24554000  0.38838500  1
  H  1046  1  0.42559400  0.14981200  0.18144400  1
  H  1047  1  0.42016400  0.18288000  0.15209500  1
  H  1051  1  0.65102300  0.27038500  0.02863600  1
  H  1052  1  0.57243800  0.23839900  0.02471900  1
  H  1053  1  0.60119100  0.27230600  0.02925400  1
  H  1063  1  0.45557700  0.21773100  0.04756900  1
  H  1064  1  0.44344300  0.14961800  0.08456500  1
  H  1066  1  0.45571500  0.26917100  0.01641100  1
  H  1069  1  0.44478600  0.21800500  0.09003600  1
  H  1072  1  0.48377000  0.15870100  0.11274800  1
  H  1077  1  0.40813600  0.27484800  0.00782800  1
  H  1078  1  0.37009100  0.25336000  0.01430700  1
  H  1080  1  0.40661200  0.18486100  0.00249000  1
  H  1082  1  0.36508900  0.18476900  0.01646500  1
  H  1087  1  0.31072500  0.22637300  0.04862500  1
  H  1092  1  0.46081600  0.12782000  0.95399500  1
  H  1093  1  0.43766000  0.13345800  0.99905000  1
  H  1094  1  0.41920300  0.12441100  0.85907300  1
  H  1098  1  0.44028900  0.03607100  0.80129600  1
  H  1100  1  0.43872700  0.04113800  0.73267300  1
  H  1106  1  0.47921600  0.07097000  0.78641500  1
  H  1107  1  0.48307800  0.09972400  0.82035500  1
  H  1111  1  0.40566500  0.09511000  0.77397300  1
  H  1114  1  0.67891900  0.00015300  0.64417100  1
  H  1118  1  0.99943000  0.12945800  0.50785800  1
  H  1119  1  0.90759000  0.12966500  0.49320500  1
  H  1120  1  0.95507300  0.13532100  0.48405700  1
  H  1121  1  0.95198600  0.13529700  0.51692100  1
  H  1123  1  0.80605600  0.13220300  0.53046000  1
  H  1124  1  0.75627700  0.13407900  0.52958100  1
  H  1127  1  0.75615000  0.03663000  0.51271000  1
  H  1135  1  0.74703300  0.06468300  0.47225900  1
  H  1136  1  0.78100900  0.09338900  0.46685100  1
  H  1138  1  0.72321500  0.10478200  0.53548500  1
  H  1139  1  0.68795100  0.00007800  0.49969400  1
  H  1141  1  0.68790800  0.04236900  0.51170800  1
  H  1143  1  0.15111800  0.13365200  0.47177500  1
  H  1146  1  0.15120800  0.03646200  0.48840000  1
  H  1148  1  0.21946900  0.04185400  0.48945200  1
  H  1153  1  0.18420100  0.10438700  0.46579700  1
  H  1154  1  0.16061400  0.06431600  0.52912800  1
  H  1157  1  0.10133600  0.13164500  0.47102600  1
  H  1161  1  0.12662900  0.09299500  0.53462100  1
  H  1169  1  0.46669800  0.03634500  0.19926800  1
  H  1171  1  0.46799200  0.04168000  0.26789900  1
  H  1178  1  0.50144900  0.09548900  0.22673300  1
  H  1184  1  0.42800200  0.07136700  0.21366800  1
  H  1185  1  0.42445700  0.10007500  0.17965800  1
  H  1186  1  0.44756600  0.12792800  0.04629300  1
  H  1187  1  0.47064700  0.13349700  0.00122000  1
  H  1188  1  0.48871000  0.12472100  0.14150100  1
  C  1  1  0.60251100  0.93090900  0.71807900  1
  C  2  1  0.58196800  0.94702100  0.72104100  1
  C  4  1  0.45244300  0.97561100  0.76430700  1
  C  5  1  0.45119900  0.97527700  0.79066900  1
  C  6  1  0.45482600  0.92821200  0.79072700  1
  C  7  1  0.45352600  0.92781100  0.76437100  1
  C  8  1  0.45508500  0.90438800  0.75210100  1
  C  9  1  0.45950500  0.88172900  0.76495000  1
  C  10  1  0.46140700  0.88296300  0.79117200  1
  C  11  1  0.45842900  0.90567400  0.80386600  1
  C  12  1  0.44760500  0.99784600  0.80375600  1
  C  13  1  0.45085200  0.99900100  0.75197600  1
  C  14  1  0.47685500  0.95182200  0.73430600  1
  C  15  1  0.42905400  0.95151800  0.73435700  1
  C  16  1  0.50031500  0.95114100  0.74657700  1
  C  17  1  0.52301800  0.94689100  0.73377200  1
  C  24  1  0.45297000  0.95169100  0.74933600  1
  C  25  1  0.45303400  0.95176400  0.80512900  1
  C  28  1  0.54480500  0.94350600  0.74766900  1
  C  30  1  0.46402000  0.86012600  0.75100800  1
  C  33  1  0.38288000  0.95639700  0.73389700  1
  C  34  1  0.40561800  0.95222800  0.74667100  1
  C  36  1  0.36111700  0.95976600  0.74784200  1
  C  38  1  0.30351200  0.97269200  0.71825600  1
  C  39  1  0.32392600  0.95642300  0.72125100  1
  C  44  1  0.70228400  0.96451600  0.59197100  1
  C  45  1  0.67499800  0.96421200  0.62835600  1
  C  46  1  0.66161900  0.94165900  0.62974900  1
  C  47  1  0.64185000  0.93911700  0.64675800  1
  C  48  1  0.63520700  0.95884900  0.66302400  1
  C  49  1  0.64881300  0.98159200  0.66177800  1
  C  50  1  0.66862500  0.98390200  0.64448800  1
  C  51  1  0.61677300  0.95461700  0.68170500  1
  C  52  1  0.61960200  0.93454300  0.69857700  1
  C  53  1  0.57924300  0.96740900  0.70463300  1
  C  54  1  0.59624300  0.97091100  0.68494000  1
  C  60  1  0.47647100  0.95007100  0.70797000  1
  C  61  1  0.42938400  0.95319700  0.70801500  1
  C  62  1  0.52175200  0.94379600  0.70767600  1
  C  63  1  0.49902500  0.94627800  0.69490600  1
  C  66  1  0.45291300  0.95161400  0.69355000  1
  C  70  1  0.40680400  0.95695900  0.69498800  1
  C  71  1  0.38409600  0.95942300  0.70779200  1
  C  74  1  0.28911500  0.94907500  0.68187500  1
  C  75  1  0.32650900  0.93599900  0.70486600  1
  C  76  1  0.30951300  0.93262100  0.68514900  1
  C  79  1  0.28641900  0.96917900  0.69873100  1
  C  83  1  0.20399000  0.93978900  0.59171400  1
  C  85  1  0.23104900  0.93991800  0.62827200  1
  C  86  1  0.24455300  0.96239000  0.62976600  1
  C  87  1  0.26426100  0.96478700  0.64686600  1
  C  88  1  0.27070400  0.94499500  0.66313900  1
  C  89  1  0.25695000  0.92234500  0.66181300  1
  C  90  1  0.23720900  0.92017700  0.64442200  1
  C  97  1  0.71909600  0.92835400  0.50111100  1
  C  98  1  0.74547200  0.92861100  0.49943500  1
  C  99  1  0.74562100  0.97572000  0.50220200  1
  C  100  1  0.71925600  0.97614900  0.50040100  1
  C  101  1  0.75874400  0.99827100  0.50585800  1
  C  102  1  0.75846300  0.90597100  0.49585700  1
  C  103  1  0.74558800  0.88327300  0.49357400  1
  C  104  1  0.71944600  0.88213200  0.49663000  1
  C  110  1  0.76001100  0.95211800  0.50083900  1
  C  113  1  0.70701900  0.99964200  0.50091300  1
  C  114  1  0.70670900  0.90493900  0.50059500  1
  C  115  1  0.68904700  0.95309500  0.52452100  1
  C  116  1  0.66265800  0.95445300  0.52405200  1
  C  117  1  0.66280300  0.95040600  0.47708600  1
  C  118  1  0.68920400  0.95159900  0.47679400  1
  C  119  1  0.64973400  0.94663000  0.45455500  1
  C  120  1  0.66253900  0.94333000  0.43197400  1
  C  121  1  0.68880500  0.94515400  0.43084000  1
  C  122  1  0.70158700  0.94976700  0.45347500  1
  C  123  1  0.70128800  0.95487700  0.54792000  1
  C  124  1  0.68838200  0.95963900  0.57044900  1
  C  125  1  0.66213200  0.96159100  0.56915100  1
  C  126  1  0.64945700  0.95831300  0.54649300  1
  C  130  1  0.70414500  0.95230000  0.50070900  1
  C  131  1  0.64828200  0.95247000  0.50052100  1
  C  134  1  0.70542800  0.86035900  0.49352400  1
  C  136  1  0.18778100  0.97578200  0.50070300  1
  C  137  1  0.16141400  0.97549200  0.49888000  1
  C  138  1  0.16131300  0.92838400  0.50168100  1
  C  139  1  0.18769000  0.92798600  0.50002700  1
  C  140  1  0.19994900  0.90450600  0.50058400  1
  C  141  1  0.18709300  0.88177800  0.50460700  1
  C  142  1  0.16095300  0.88305400  0.50761200  1
  C  143  1  0.14820000  0.90581600  0.50527700  1
  C  144  1  0.14841600  0.99811000  0.49519800  1
  C  145  1  0.20013800  0.99921300  0.50022300  1
  C  146  1  0.21769700  0.95108500  0.52433100  1
  C  147  1  0.24409000  0.94973200  0.52404200  1
  C  148  1  0.24426600  0.95378700  0.47707700  1
  C  149  1  0.21787000  0.95255800  0.47660600  1
  C  150  1  0.25748400  0.95759600  0.45463900  1
  C  151  1  0.24483100  0.96088200  0.43197200  1
  C  152  1  0.21857500  0.95901400  0.43065900  1
  C  153  1  0.20564500  0.95435400  0.45319900  1
  C  154  1  0.20529800  0.94932200  0.54764600  1
  C  155  1  0.21804800  0.94458800  0.57027200  1
  C  156  1  0.24430300  0.94261900  0.56914900  1
  C  157  1  0.25713100  0.94584900  0.54657000  1
  C  165  1  0.20276300  0.95185500  0.50041400  1
  C  166  1  0.25862900  0.95172600  0.50061000  1
  C  169  1  0.14690000  0.95196600  0.50023000  1
  C  170  1  0.20099700  0.85994400  0.50778800  1
  C  178  1  0.70283600  0.94024600  0.40940400  1
  C  179  1  0.67575500  0.94027300  0.37286000  1
  C  180  1  0.66239100  0.96281300  0.37115600  1
  C  181  1  0.64271500  0.96518100  0.35401500  1
  C  182  1  0.63616200  0.94528600  0.33791100  1
  C  183  1  0.64976100  0.92255700  0.33946400  1
  C  184  1  0.66947400  0.92042200  0.35689100  1
  C  186  1  0.61781000  0.94932600  0.31910500  1
  C  187  1  0.62065800  0.96928300  0.30209800  1
  C  188  1  0.58035800  0.93632400  0.29616200  1
  C  189  1  0.59731200  0.93298000  0.31592400  1
  C  198  1  0.47761600  0.95376800  0.29281900  1
  C  199  1  0.43053200  0.95066200  0.29286800  1
  C  200  1  0.52290800  0.95995500  0.29303200  1
  C  201  1  0.50019400  0.95757100  0.30583700  1
  C  204  1  0.45408600  0.95225800  0.30728800  1
  C  208  1  0.40797700  0.94692500  0.30594200  1
  C  209  1  0.38523700  0.94448700  0.29318800  1
  C  212  1  0.29018800  0.95478300  0.31925900  1
  C  213  1  0.32761700  0.96786900  0.29632600  1
  C  214  1  0.31061900  0.97120800  0.31605100  1
  C  217  1  0.28746500  0.93474200  0.30233200  1
  C  219  1  0.20468600  0.96391800  0.40913200  1
  C  221  1  0.23199300  0.96388100  0.37273900  1
  C  222  1  0.24544800  0.94138400  0.37120300  1
  C  223  1  0.26520800  0.93900700  0.35415700  1
  C  224  1  0.27175300  0.95884700  0.33798200  1
  C  225  1  0.25805600  0.98152900  0.33936200  1
  C  226  1  0.23826400  0.98367500  0.35669700  1
  C  232  1  0.60360700  0.97276700  0.28253100  1
  C  233  1  0.58308500  0.95661500  0.27963500  1
  C  235  1  0.45346100  0.92819100  0.23653300  1
  C  236  1  0.45218000  0.92851800  0.21017300  1
  C  237  1  0.45584800  0.97557600  0.21008900  1
  C  238  1  0.45458900  0.97599000  0.23644900  1
  C  239  1  0.45615700  0.99942300  0.24870000  1
  C  240  1  0.45943600  0.99810400  0.19692900  1
  C  241  1  0.44854500  0.90595100  0.19709300  1
  C  242  1  0.44546800  0.88329200  0.20985000  1
  C  243  1  0.44737200  0.88212800  0.23607500  1
  C  244  1  0.45186400  0.90480400  0.24886900  1
  C  245  1  0.47795000  0.95197500  0.26648300  1
  C  246  1  0.43015200  0.95231600  0.26652600  1
  C  247  1  0.50139500  0.95259100  0.25417700  1
  C  248  1  0.52413300  0.95678300  0.26694500  1
  C  255  1  0.45403900  0.95211700  0.25149500  1
  C  256  1  0.45401500  0.95202100  0.19570000  1
  C  259  1  0.44277000  0.86057500  0.25006500  1
  C  260  1  0.54591800  0.96002500  0.25300500  1
  C  264  1  0.38396900  0.94751100  0.26708500  1
  C  265  1  0.40669000  0.95161200  0.25425900  1
  C  267  1  0.36216000  0.94420600  0.25319400  1
  C  269  1  0.30456000  0.93126500  0.28280300  1
  C  270  1  0.32500400  0.94750700  0.27987000  1
  C  273  1  0.45433900  0.71796200  0.97653200  1
  C  274  1  0.45254500  0.74433300  0.97678700  1
  C  275  1  0.44875200  0.75729300  0.95419500  1
  C  276  1  0.44639500  0.74439700  0.93154700  1
  C  277  1  0.44956100  0.71826600  0.93040600  1
  C  281  1  0.44929500  0.73078800  0.87147400  1
  C  282  1  0.46956000  0.74741200  0.87389600  1
  C  287  1  0.47263900  0.76714400  0.85685200  1
  C  288  1  0.46428400  0.82370800  0.77828600  1
  C  289  1  0.44190100  0.82200900  0.79189100  1
  C  290  1  0.43981400  0.80496400  0.81167700  1
  C  291  1  0.45983100  0.78894000  0.81809100  1
  C  292  1  0.48240000  0.79048400  0.80424400  1
  C  293  1  0.48425700  0.80782300  0.78443200  1
  C  295  1  0.45604900  0.77019100  0.83655700  1
  C  296  1  0.43611400  0.75308700  0.83401600  1
  C  297  1  0.43289300  0.73355400  0.85116100  1
  C  307  1  0.97704300  0.71600000  0.50000100  1
  C  308  1  0.97673400  0.74239700  0.49871400  1
  C  309  1  0.92967900  0.74251100  0.50245000  1
  C  310  1  0.92924800  0.71611400  0.50119800  1
  C  311  1  0.88320200  0.71675400  0.50737000  1
  C  312  1  0.88445900  0.74301700  0.50919700  1
  C  313  1  0.90716700  0.75570000  0.50609800  1
  C  318  1  0.95324000  0.75690700  0.50056700  1
  C  321  1  0.99930900  0.75547500  0.49506000  1
  C  323  1  0.82517100  0.73012800  0.51220500  1
  C  324  1  0.82353100  0.74371000  0.48982300  1
  C  325  1  0.80644000  0.76347000  0.48763100  1
  C  326  1  0.79031200  0.76988200  0.50754000  1
  C  327  1  0.79179500  0.75605800  0.53010800  1
  C  328  1  0.80917900  0.73626900  0.53207100  1
  C  330  1  0.77152600  0.78831300  0.50365100  1
  C  331  1  0.75451500  0.78568400  0.48367500  1
  C  332  1  0.73494300  0.80278700  0.48035100  1
  C  333  1  0.73204900  0.82314700  0.49668600  1
  C  334  1  0.74857700  0.82565500  0.51699100  1
  C  335  1  0.76834800  0.80865300  0.52017600  1
  C  346  1  0.15189600  0.78524500  0.51779200  1
  C  347  1  0.17143900  0.80238600  0.52109200  1
  C  348  1  0.17425400  0.82277400  0.50477600  1
  C  349  1  0.15766600  0.82527900  0.48452100  1
  C  355  1  0.02212600  0.74268300  0.49202600  1
  C  356  1  0.02326400  0.71641800  0.49390500  1
  C  358  1  0.08130900  0.72956800  0.48928900  1
  C  359  1  0.08297300  0.74309300  0.51170400  1
  C  360  1  0.10002900  0.76288200  0.51390900  1
  C  361  1  0.11609300  0.76938600  0.49397600  1
  C  362  1  0.11458800  0.75561500  0.47137600  1
  C  363  1  0.09724100  0.73579300  0.46940200  1
  C  365  1  0.13483200  0.78786600  0.49786100  1
  C  366  1  0.13792100  0.80824100  0.48136400  1
  C  373  1  0.44295000  0.82412000  0.22287400  1
  C  374  1  0.46547200  0.82256000  0.20948200  1
  C  375  1  0.46782200  0.80558900  0.18966200  1
  C  376  1  0.44792800  0.78951600  0.18298900  1
  C  377  1  0.45195600  0.77086400  0.16447600  1
  C  378  1  0.47192500  0.75382000  0.16713300  1
  C  379  1  0.47536300  0.73435700  0.14994900  1
  C  385  1  0.43556600  0.76783900  0.14401400  1
  C  386  1  0.42522100  0.79092100  0.19662200  1
  C  387  1  0.42310300  0.80817700  0.21648100  1
  C  392  1  0.45404100  0.75888900  0.00041200  1
  C  396  1  0.45561300  0.74451600  0.02398000  1
  C  397  1  0.45391600  0.71814100  0.02442700  1
  C  398  1  0.45881300  0.71880000  0.07053600  1
  C  399  1  0.46187300  0.74493200  0.06920200  1
  C  400  1  0.45938500  0.75765700  0.04647200  1
  C  403  1  0.45915400  0.73160300  0.12948200  1
  C  404  1  0.43886500  0.74817700  0.12692800  1
  C  407  1  0.58351400  0.66086400  0.98943400  1
  C  408  1  0.60057900  0.64110500  0.98703400  1
  C  409  1  0.65244400  0.61879000  0.98249100  1
  C  410  1  0.67194900  0.60164500  0.97898500  1
  C  415  1  0.67498300  0.58130400  0.99532100  1
  C  416  1  0.45373300  0.70555800  0.95316200  1
  C  419  1  0.44635400  0.70421700  0.90869700  1
  C  422  1  0.43067000  0.66156900  0.99871100  1
  C  423  1  0.40685300  0.70025100  0.99819100  1
  C  424  1  0.36265600  0.70131200  0.98898200  1
  C  425  1  0.32616000  0.67406400  0.98885100  1
  C  426  1  0.29124300  0.63436600  0.99359600  1
  C  427  1  0.29267000  0.64821600  0.97104000  1
  C  428  1  0.31008500  0.66797300  0.96903600  1
  C  432  1  0.40814900  0.64839900  0.99504800  1
  C  433  1  0.38546300  0.66110300  0.99187800  1
  C  434  1  0.38422300  0.68736700  0.99369100  1
  C  440  1  0.27245500  0.61594400  0.99752000  1
  C  441  1  0.24944600  0.57862600  0.98421200  1
  C  442  1  0.26921000  0.59562900  0.98098000  1
  C  443  1  0.96507600  0.57999800  0.72247800  1
  C  444  1  0.98489000  0.59600600  0.71613700  1
  C  446  1  0.94254000  0.58157800  0.70911400  1
  C  448  1  0.94528600  0.69954000  0.59236500  1
  C  449  1  0.94013900  0.59864100  0.68937600  1
  C  450  1  0.95999700  0.61477800  0.68276100  1
  C  451  1  0.98272200  0.61335000  0.69636000  1
  C  452  1  0.95592500  0.63351000  0.66433900  1
  C  453  1  0.93595500  0.65053400  0.66711400  1
  C  454  1  0.93246800  0.67006400  0.65001500  1
  C  455  1  0.94862800  0.67290300  0.62951800  1
  C  456  1  0.96892200  0.65634900  0.62685500  1
  C  457  1  0.97227000  0.63662500  0.64385800  1
  C  467  1  0.90581900  0.70385600  0.50285600  1
  C  468  1  0.95328100  0.68602600  0.52448400  1
  C  469  1  0.95149000  0.65965600  0.52414800  1
  C  470  1  0.95452100  0.65961800  0.47711800  1
  C  471  1  0.95287000  0.68599700  0.47674900  1
  C  472  1  0.95822900  0.64653500  0.45458300  1
  C  473  1  0.96065200  0.65931400  0.43187500  1
  C  474  1  0.95767100  0.68546100  0.43062600  1
  C  475  1  0.95353900  0.69828900  0.45332100  1
  C  476  1  0.95266900  0.69835600  0.54789400  1
  C  477  1  0.94851300  0.68557500  0.57060900  1
  C  478  1  0.94536800  0.65944700  0.56939500  1
  C  479  1  0.94771400  0.64662300  0.54670400  1
  C  483  1  0.95311000  0.70103800  0.50060600  1
  C  484  1  0.95296400  0.64517200  0.50064300  1
  C  487  1  0.86161200  0.70282400  0.51201700  1
  C  491  1  0.00058000  0.70363000  0.49839700  1
  C  493  1  0.04480900  0.70238600  0.48934600  1
  C  496  1  0.96099700  0.69938500  0.40885600  1
  C  497  1  0.96683800  0.59858700  0.31169400  1
  C  498  1  0.94694300  0.61472100  0.31821600  1
  C  499  1  0.92431100  0.61332900  0.30445900  1
  C  500  1  0.95089500  0.63340000  0.33671900  1
  C  501  1  0.97091200  0.65040300  0.33415300  1
  C  502  1  0.97427600  0.66989600  0.35132000  1
  C  503  1  0.95794400  0.67271600  0.37168100  1
  C  504  1  0.93761000  0.65618100  0.37414200  1
  C  505  1  0.93438500  0.63649200  0.35707300  1
  C  515  1  0.96455700  0.58156100  0.29191200  1
  C  516  1  0.92226000  0.59601300  0.28464500  1
  C  517  1  0.94210200  0.57999800  0.27841000  1
  C  519  1  0.58216700  0.67446700  0.01199000  1
  C  520  1  0.61696000  0.63470800  0.00690600  1
  C  521  1  0.61579200  0.64856800  0.02946800  1
  C  522  1  0.59843400  0.66835800  0.03164000  1
  C  523  1  0.63565100  0.61622400  0.00282000  1
  C  524  1  0.65865600  0.57884600  0.01595700  1
  C  525  1  0.63895700  0.59589600  0.01933100  1
  C  531  1  0.50144900  0.70038100  0.00287200  1
  C  532  1  0.45414500  0.70302200  0.00061600  1
  C  533  1  0.54561400  0.70160800  0.01220200  1
  C  534  1  0.45460400  0.70591300  0.04788700  1
  C  535  1  0.47806200  0.68803100  0.00127900  1
  C  536  1  0.47771900  0.66164000  0.00268700  1
  C  537  1  0.43026600  0.68796800  0.00006300  1
  C  538  1  0.52409400  0.68758400  0.00753100  1
  C  539  1  0.52291700  0.66133400  0.00957400  1
  C  540  1  0.50026500  0.64855100  0.00647400  1
  C  544  1  0.45421000  0.64715300  0.00084400  1
  C  546  1  0.46227400  0.70491700  0.09230700  1
  C  550  1  0.32456200  0.66047100  0.01139400  1
  C  551  1  0.30744700  0.64073500  0.01362300  1
  C  554  1  0.23298700  0.58111400  0.00474000  1
  C  555  1  0.25551600  0.61855100  0.01772400  1
  C  556  1  0.23594800  0.60145100  0.02109300  1
  C  559  1  0.74433300  0.45404100  0.97642600  1
  C  560  1  0.71793600  0.45277900  0.97619300  1
  C  561  1  0.71822300  0.45894200  0.93020100  1
  C  562  1  0.74448900  0.46081700  0.93127000  1
  C  563  1  0.75734900  0.45768000  0.95384400  1
  C  566  1  0.73118000  0.46366500  0.87220200  1
  C  567  1  0.74464600  0.44118800  0.87049900  1
  C  571  1  0.70550100  0.45442900  0.95288800  1
  C  572  1  0.66166900  0.47583900  0.99881700  1
  C  573  1  0.68761300  0.52232600  0.99550400  1
  C  574  1  0.66145700  0.52112800  0.99259600  1
  C  575  1  0.64862700  0.49843300  0.99514000  1
  C  580  1  0.70413000  0.46363300  0.90875300  1
  C  583  1  0.70157700  0.54407900  0.99206200  1
  C  584  1  0.70039900  0.49958000  0.99965500  1
  C  585  1  0.18980800  0.45142300  0.97616400  1
  C  586  1  0.16341700  0.45009900  0.97661900  1
  C  587  1  0.15021400  0.44647500  0.95414300  1
  C  588  1  0.16288200  0.44344800  0.93144800  1
  C  589  1  0.18913100  0.44540100  0.93015400  1
  C  590  1  0.20204200  0.44986700  0.95274600  1
  C  595  1  0.20304900  0.44080700  0.90857200  1
  C  598  1  0.17568400  0.44068600  0.87224000  1
  C  599  1  0.16212100  0.46311300  0.87063100  1
  C  602  1  0.26077500  0.45213000  0.99977300  1
  C  603  1  0.24636200  0.42855300  0.99826400  1
  C  604  1  0.21988500  0.47594000  0.99976800  1
  C  607  1  0.97708300  0.45167500  0.76613000  1
  C  608  1  0.97671400  0.45337700  0.79246800  1
  C  609  1  0.92960700  0.45062100  0.79241800  1
  C  610  1  0.92929300  0.45240800  0.76608400  1
  C  611  1  0.90585100  0.45192300  0.75376600  1
  C  612  1  0.88307900  0.44786800  0.76651800  1
  C  613  1  0.88427900  0.44469600  0.79260800  1
  C  614  1  0.90700000  0.44696400  0.80542500  1
  C  615  1  0.95397300  0.47596600  0.73612000  1
  C  616  1  0.96040200  0.52198300  0.73563800  1
  C  617  1  0.95575600  0.49934500  0.74844200  1
  C  622  1  0.95320300  0.45205700  0.75109700  1
  C  623  1  0.95314600  0.45197900  0.80688700  1
  C  626  1  0.96522300  0.54349000  0.74961900  1
  C  628  1  0.86130200  0.44469600  0.75254300  1
  C  631  1  0.99929900  0.45696700  0.80553300  1
  C  633  1  0.73739200  0.48356000  0.85626200  1
  C  636  1  0.76436900  0.43892900  0.85339600  1
  C  637  1  0.77085800  0.45887200  0.83732600  1
  C  638  1  0.75714600  0.48153300  0.83886900  1
  C  639  1  0.78927200  0.45493800  0.81855900  1
  C  640  1  0.78655900  0.43498700  0.80152500  1
  C  641  1  0.80366300  0.43161900  0.78198700  1
  C  642  1  0.82410200  0.44788500  0.77914800  1
  C  643  1  0.82669700  0.46816700  0.79570500  1
  C  644  1  0.80969400  0.47139300  0.81544200  1
  C  650  1  0.14230500  0.46531500  0.85362800  1
  C  653  1  0.02221800  0.45921500  0.79277200  1
  C  654  1  0.02346500  0.45614700  0.76667200  1
  C  655  1  0.00071100  0.45217400  0.75385900  1
  C  658  1  0.04529300  0.45925200  0.75275900  1
  C  660  1  0.13581100  0.44536700  0.83756700  1
  C  661  1  0.11733300  0.44926700  0.81885500  1
  C  662  1  0.11996000  0.46923000  0.80181900  1
  C  663  1  0.10283300  0.47253400  0.78228800  1
  C  664  1  0.08245300  0.45619300  0.77946100  1
  C  665  1  0.07993500  0.43591000  0.79602700  1
  C  666  1  0.09696300  0.43274500  0.81575500  1
  C  670  1  0.95526700  0.47561200  0.70976000  1
  C  671  1  0.95910000  0.49814200  0.69667100  1
  C  672  1  0.96232900  0.52078900  0.70941700  1
  C  675  1  0.95323500  0.45211300  0.69530400  1
  C  678  1  0.95117200  0.42858400  0.70971000  1
  C  680  1  0.95222600  0.47561300  0.29100700  1
  C  681  1  0.94835900  0.49812400  0.30412000  1
  C  682  1  0.94505800  0.52076700  0.29139100  1
  C  685  1  0.95429600  0.45210900  0.30545000  1
  C  688  1  0.95639600  0.42859500  0.29103100  1
  C  689  1  0.93044200  0.45166900  0.23464100  1
  C  690  1  0.93079100  0.45338100  0.20830100  1
  C  691  1  0.97790000  0.45074600  0.20831600  1
  C  692  1  0.97823200  0.45249100  0.23465200  1
  C  693  1  0.90819300  0.45690000  0.19524200  1
  C  694  1  0.88543900  0.45909200  0.20801200  1
  C  695  1  0.88420600  0.45601100  0.23411300  1
  C  696  1  0.90697700  0.45210200  0.24691500  1
  C  697  1  0.95351900  0.47598800  0.26464700  1
  C  698  1  0.94698100  0.52199000  0.26517000  1
  C  699  1  0.95170500  0.49937900  0.25234800  1
  C  704  1  0.95433300  0.45208700  0.24965700  1
  C  705  1  0.95435100  0.45205500  0.19386400  1
  C  708  1  0.94214600  0.54351200  0.25121900  1
  C  709  1  0.86235700  0.45898900  0.24802200  1
  C  713  1  0.76582000  0.46518800  0.14677600  1
  C  714  1  0.77220100  0.44521600  0.16285300  1
  C  715  1  0.79058700  0.44906900  0.18166500  1
  C  716  1  0.78791100  0.46903000  0.19869700  1
  C  717  1  0.80493800  0.47229400  0.21831900  1
  C  718  1  0.82527200  0.45591200  0.22124600  1
  C  719  1  0.82783200  0.43562500  0.20469000  1
  C  720  1  0.81090400  0.43250300  0.18487000  1
  C  725  1  0.14317900  0.43873700  0.14703100  1
  C  726  1  0.15053400  0.48140400  0.16130400  1
  C  729  1  0.17029400  0.48326700  0.14389800  1
  C  732  1  0.00066900  0.44719500  0.19528300  1
  C  733  1  0.00185000  0.45207900  0.24694700  1
  C  734  1  0.02463300  0.44817400  0.23416400  1
  C  735  1  0.02342100  0.44505200  0.20806800  1
  C  738  1  0.04648000  0.44525700  0.24809200  1
  C  740  1  0.13675500  0.45879100  0.16298900  1
  C  741  1  0.11835800  0.45501100  0.18181100  1
  C  742  1  0.12103800  0.43513400  0.19893700  1
  C  743  1  0.10397500  0.43192600  0.21853800  1
  C  744  1  0.08360300  0.44828400  0.22134900  1
  C  745  1  0.08104600  0.46849700  0.20470100  1
  C  746  1  0.09800700  0.47155700  0.18490000  1
  C  751  1  0.75890500  0.45218000  0.00001300  1
  C  752  1  0.71818200  0.45163000  0.02408800  1
  C  753  1  0.74457500  0.45034100  0.02358500  1
  C  754  1  0.75781700  0.44671400  0.04603800  1
  C  755  1  0.74519200  0.44364600  0.06875300  1
  C  756  1  0.71893900  0.44553500  0.07008100  1
  C  761  1  0.73245700  0.44065100  0.12801400  1
  C  762  1  0.74606700  0.46304400  0.12969400  1
  C  764  1  0.68805200  0.47615100  0.00056100  1
  C  765  1  0.64717800  0.45231600  0.00059200  1
  C  767  1  0.70598600  0.45003000  0.04752000  1
  C  769  1  0.70303700  0.45222500  0.00030000  1
  C  771  1  0.70505900  0.44092700  0.09168500  1
  C  774  1  0.66160800  0.42874500  0.00204300  1
  C  775  1  0.20753000  0.49936600  0.00063500  1
  C  776  1  0.20491200  0.45200500  0.00014300  1
  C  777  1  0.14904400  0.45188200  0.00033300  1
  C  778  1  0.20633500  0.54392000  0.00791700  1
  C  780  1  0.16291000  0.44083200  0.12991700  1
  C  781  1  0.16357200  0.45372200  0.02378300  1
  C  782  1  0.18997000  0.45252300  0.02406000  1
  C  783  1  0.20235700  0.45410700  0.04739700  1
  C  784  1  0.18957500  0.45848900  0.07007900  1
  C  785  1  0.16330500  0.46026500  0.06897500  1
  C  786  1  0.15050300  0.45724700  0.04635400  1
  C  787  1  0.24626500  0.47564100  0.00154400  1
  C  788  1  0.22030400  0.52213500  0.00468400  1
  C  789  1  0.24645300  0.52094900  0.00765600  1
  C  790  1  0.25928900  0.49824100  0.00523900  1
  C  796  1  0.20361700  0.46299300  0.09160500  1
  C  799  1  0.17644800  0.46325600  0.12808100  1
  C  805  1  0.63526300  0.28842100  0.99688900  1
  C  806  1  0.65815200  0.32605100  0.98426800  1
  C  807  1  0.63843200  0.30905900  0.98073500  1
  C  810  1  0.20773900  0.40465800  0.99944500  1
  C  811  1  0.20668500  0.36016200  0.99184500  1
  C  813  1  0.23617000  0.30230600  0.97942600  1
  C  816  1  0.25945700  0.40601800  0.99441000  1
  C  817  1  0.24669700  0.38326900  0.99200200  1
  C  818  1  0.22058400  0.38196200  0.99521100  1
  C  821  1  0.23335800  0.32297800  0.99538200  1
  C  822  1  0.95245200  0.42817800  0.73607000  1
  C  823  1  0.95061500  0.40477600  0.74834500  1
  C  824  1  0.94586700  0.38218500  0.73549800  1
  C  826  1  0.94087600  0.36069100  0.74943400  1
  C  828  1  0.94103900  0.32418400  0.72227900  1
  C  831  1  0.92128700  0.30809900  0.71594100  1
  C  835  1  0.16945900  0.42078100  0.85631700  1
  C  837  1  0.14961000  0.42275200  0.83902600  1
  C  844  1  0.96359300  0.32265900  0.70893700  1
  C  845  1  0.94396100  0.38343300  0.70927800  1
  C  846  1  0.94728700  0.40609100  0.69657500  1
  C  849  1  0.96606500  0.30559000  0.68921600  1
  C  850  1  0.94626700  0.28937600  0.68260500  1
  C  851  1  0.92353000  0.29073800  0.69618900  1
  C  853  1  0.96356800  0.38343900  0.29146000  1
  C  854  1  0.96027000  0.40609800  0.30416300  1
  C  857  1  0.94121200  0.30576600  0.31168300  1
  C  858  1  0.96096600  0.28949800  0.31829800  1
  C  859  1  0.98367400  0.29073400  0.30465300  1
  C  860  1  0.94370600  0.32277800  0.29191600  1
  C  863  1  0.98593800  0.30803500  0.28485000  1
  C  864  1  0.95513700  0.42819800  0.26466900  1
  C  865  1  0.95698300  0.40480000  0.25238900  1
  C  866  1  0.96168600  0.38220000  0.26523900  1
  C  868  1  0.96652600  0.36066200  0.25131800  1
  C  870  1  0.96623500  0.32418400  0.27851800  1
  C  874  1  0.75836000  0.42263100  0.16131700  1
  C  878  1  0.73857800  0.42071800  0.14394300  1
  C  885  1  0.67465600  0.32321100  0.00471600  1
  C  886  1  0.68797300  0.42834700  0.00019200  1
  C  887  1  0.64852800  0.40619500  0.00586500  1
  C  888  1  0.66130400  0.38345000  0.00822400  1
  C  889  1  0.68741600  0.38216100  0.00499500  1
  C  892  1  0.70024400  0.40487500  0.00080500  1
  C  893  1  0.70133300  0.36036700  0.00831900  1
  C  894  1  0.67176000  0.30256200  0.02068700  1
  C  898  1  0.21999500  0.42813800  0.00024800  1
  C  900  1  0.27272900  0.28813800  0.00311600  1
  C  901  1  0.24992900  0.32581100  0.01577400  1
  C  902  1  0.26964100  0.30879600  0.01925700  1
  C  906  1  0.58180500  0.23025400  0.98711800  1
  C  907  1  0.61654900  0.27000500  0.99261500  1
  C  908  1  0.61522200  0.25654500  0.96982000  1
  C  909  1  0.59789500  0.23675000  0.96744500  1
  C  913  1  0.45525100  0.15987200  0.97648000  1
  C  914  1  0.45348300  0.18624300  0.97612000  1
  C  915  1  0.45372400  0.19852000  0.95267700  1
  C  916  1  0.45747800  0.18569300  0.92991300  1
  C  917  1  0.46061800  0.15956200  0.93114200  1
  C  918  1  0.45864300  0.14678900  0.95389600  1
  C  919  1  0.47792900  0.21636600  0.99894000  1
  C  920  1  0.47749700  0.24276100  0.99763000  1
  C  921  1  0.52384600  0.21696600  0.99193000  1
  C  922  1  0.52257400  0.24322200  0.99002700  1
  C  923  1  0.49994800  0.25593200  0.99356300  1
  C  929  1  0.46032500  0.19962400  0.90807800  1
  C  932  1  0.45718100  0.17285200  0.87099100  1
  C  933  1  0.43700700  0.15614900  0.87361200  1
  C  935  1  0.50132200  0.20408700  0.99692200  1
  C  937  1  0.54532000  0.20304400  0.98678500  1
  C  940  1  0.32462600  0.24315500  0.98993000  1
  C  941  1  0.30756400  0.26289700  0.98737000  1
  C  944  1  0.25568800  0.28519700  0.98304700  1
  C  946  1  0.47012500  0.15055600  0.83344700  1
  C  947  1  0.47341700  0.17012600  0.85053900  1
  C  956  1  0.96132600  0.20459400  0.59231100  1
  C  958  1  0.95041600  0.27063700  0.66420800  1
  C  959  1  0.97043300  0.25367500  0.66702200  1
  C  960  1  0.97399100  0.23413200  0.64995400  1
  C  961  1  0.95785800  0.23122200  0.62944700  1
  C  962  1  0.93752300  0.24771600  0.62673700  1
  C  963  1  0.93410000  0.26745200  0.64371500  1
  C  968  1  0.92974800  0.18816900  0.49985900  1
  C  969  1  0.93006700  0.16177400  0.49856500  1
  C  970  1  0.97710700  0.16166800  0.50246500  1
  C  971  1  0.97753800  0.18806500  0.50120200  1
  C  972  1  0.99960300  0.14848100  0.50621800  1
  C  973  1  0.90751000  0.14868900  0.49482700  1
  C  974  1  0.88487300  0.16148100  0.49166100  1
  C  975  1  0.88371900  0.18774200  0.49357000  1
  C  976  1  0.90637900  0.20053800  0.49816500  1
  C  977  1  0.95342600  0.21814100  0.52442800  1
  C  978  1  0.95523000  0.24451200  0.52411300  1
  C  979  1  0.95234800  0.24457600  0.47707300  1
  C  980  1  0.95399100  0.21819600  0.47669300  1
  C  981  1  0.94871500  0.25767500  0.45453500  1
  C  982  1  0.94631400  0.24490800  0.43181900  1
  C  983  1  0.94930400  0.21876400  0.43056000  1
  C  984  1  0.95336800  0.20591600  0.45325700  1
  C  985  1  0.95398300  0.20580500  0.54783400  1
  C  986  1  0.95810800  0.21857000  0.57056300  1
  C  987  1  0.96124600  0.24470100  0.56936900  1
  C  988  1  0.95892900  0.25753900  0.54668500  1
  C  995  1  0.95367600  0.20314100  0.50054500  1
  C  996  1  0.95384200  0.25900700  0.50061000  1
  C  999  1  0.95355600  0.14727000  0.50050000  1
  C  1000  1  0.86220500  0.20176900  0.48886600  1
  C  1002  1  0.82569800  0.17460000  0.48896100  1
  C  1003  1  0.82407300  0.16118900  0.51144900  1
  C  1004  1  0.80974400  0.16826200  0.46912800  1
  C  1008  1  0.79240900  0.14844500  0.47123100  1
  C  1012  1  0.00112300  0.20032500  0.50297000  1
  C  1013  1  0.02371700  0.18743300  0.50761200  1
  C  1014  1  0.02244900  0.16117200  0.50946600  1
  C  1017  1  0.04525800  0.20135800  0.51247700  1
  C  1019  1  0.08171800  0.17408700  0.51249200  1
  C  1020  1  0.08331000  0.16063300  0.49003000  1
  C  1021  1  0.09773900  0.16781900  0.53229500  1
  C  1025  1  0.11511000  0.14803300  0.53018600  1
  C  1028  1  0.94597900  0.20485000  0.40878700  1
  C  1030  1  0.95679700  0.27083500  0.33677100  1
  C  1031  1  0.93670600  0.25394200  0.33407300  1
  C  1032  1  0.93314300  0.23444900  0.35119900  1
  C  1033  1  0.94934400  0.23152300  0.37165200  1
  C  1034  1  0.96974300  0.24795500  0.37425000  1
  C  1035  1  0.97317100  0.26764200  0.35721800  1
  C  1043  1  0.43753300  0.15087900  0.16660100  1
  C  1044  1  0.43440800  0.17043300  0.14946100  1
  C  1048  1  0.58327900  0.24348800  0.00988400  1
  C  1049  1  0.60032900  0.26323500  0.01249700  1
  C  1050  1  0.65223000  0.28547800  0.01702000  1
  C  1054  1  0.45398100  0.25717900  0.00002000  1
  C  1055  1  0.43051000  0.24270000  0.00229300  1
  C  1056  1  0.43015600  0.21629700  0.00108900  1
  C  1057  1  0.45469000  0.18631400  0.02400200  1
  C  1058  1  0.45299800  0.15993700  0.02371400  1
  C  1059  1  0.44967500  0.14690700  0.04633800  1
  C  1060  1  0.44770200  0.15973400  0.06906100  1
  C  1061  1  0.45075500  0.18587700  0.07021300  1
  C  1062  1  0.45446000  0.19865400  0.04741200  1
  C  1065  1  0.45406300  0.20131000  0.00012100  1
  C  1067  1  0.45414000  0.14543900  0.00019900  1
  C  1068  1  0.44797100  0.19986500  0.09202600  1
  C  1070  1  0.45084300  0.17314500  0.12916900  1
  C  1071  1  0.47104800  0.15644600  0.12676300  1
  C  1074  1  0.40801300  0.25581800  0.00627100  1
  C  1075  1  0.38540300  0.24306100  0.00974400  1
  C  1076  1  0.38421000  0.21679700  0.00794900  1
  C  1079  1  0.40679500  0.20395800  0.00311800  1
  C  1081  1  0.36274900  0.20282200  0.01302200  1
  C  1083  1  0.32622800  0.22997500  0.01272000  1
  C  1084  1  0.29145600  0.26971600  0.00732700  1
  C  1085  1  0.29291400  0.25630800  0.03014400  1
  C  1086  1  0.31025100  0.23651700  0.03246900  1
  C  1095  1  0.43385700  0.13638200  0.85662000  1
  C  1096  1  0.44455600  0.02067900  0.79100800  1
  C  1097  1  0.44638400  0.02183900  0.76477800  1
  C  1099  1  0.44177200  0.04338900  0.75078600  1
  C  1101  1  0.44168100  0.07985700  0.77797100  1
  C  1102  1  0.46417600  0.08161000  0.79138200  1
  C  1103  1  0.46639200  0.09865900  0.81115000  1
  C  1104  1  0.44638400  0.11462200  0.81774700  1
  C  1105  1  0.45027600  0.13338200  0.83618000  1
  C  1109  1  0.42369800  0.11301600  0.80410100  1
  C  1110  1  0.42171500  0.09567900  0.78429800  1
  C  1122  1  0.80702200  0.14141000  0.51378300  1
  C  1125  1  0.71988100  0.02252000  0.50499800  1
  C  1126  1  0.74600200  0.02120700  0.50815800  1
  C  1128  1  0.79093700  0.13479700  0.49390500  1
  C  1129  1  0.77220100  0.11633900  0.49791100  1
  C  1130  1  0.75513200  0.11909400  0.51781800  1
  C  1131  1  0.73557900  0.10198300  0.52122100  1
  C  1132  1  0.73276100  0.08149200  0.50503500  1
  C  1133  1  0.74936400  0.07884400  0.48480800  1
  C  1134  1  0.76911300  0.09585800  0.48154700  1
  C  1140  1  0.70599100  0.04435500  0.50820700  1
  C  1144  1  0.16127400  0.02098100  0.49293900  1
  C  1145  1  0.18739500  0.02216200  0.49615300  1
  C  1147  1  0.20140200  0.04392800  0.49298400  1
  C  1149  1  0.15232500  0.11868600  0.48355400  1
  C  1150  1  0.17189100  0.10159700  0.48011100  1
  C  1151  1  0.17477800  0.08112300  0.49630600  1
  C  1152  1  0.15824000  0.07847500  0.51658700  1
  C  1156  1  0.10039100  0.14088100  0.48768900  1
  C  1158  1  0.11654800  0.13434400  0.50753600  1
  C  1159  1  0.13531500  0.11592500  0.50351200  1
  C  1160  1  0.13848200  0.09546800  0.51989300  1
  C  1167  1  0.46057700  0.02223200  0.23582700  1
  C  1168  1  0.46245900  0.02097900  0.20960500  1
  C  1170  1  0.46511400  0.04384600  0.24975000  1
  C  1172  1  0.46546900  0.08023700  0.22242900  1
  C  1173  1  0.44308800  0.08200000  0.20882800  1
  C  1174  1  0.44106100  0.09901800  0.18901200  1
  C  1175  1  0.46113100  0.11496500  0.18257400  1
  C  1176  1  0.48369200  0.11336700  0.19642600  1
  C  1177  1  0.48549300  0.09604800  0.21626300  1
  C  1179  1  0.45741200  0.13370600  0.16408300  1
  C  1183  1  0.47403000  0.13669200  0.14380100  1
  N  32  1  0.56777100  0.94354800  0.74086700  1
  N  41  1  0.33813800  0.95979500  0.74108300  1
  N  59  1  0.69543400  0.96646800  0.61481400  1
  N  95  1  0.26206000  0.90270800  0.67871800  1
  N  96  1  0.21068700  0.93779400  0.61459800  1
  N  194  1  0.64453500  0.90279600  0.32273800  1
  N  197  1  0.69612100  0.93817600  0.38653200  1
  N  231  1  0.21155400  0.96597800  0.38630300  1
  N  263  1  0.56889100  0.95997100  0.25978600  1
  N  272  1  0.33920000  0.94419100  0.26001500  1
  N  298  1  0.50226400  0.77381900  0.80933200  1
  N  301  1  0.46607100  0.83725300  0.75782400  1
  N  341  1  0.77502800  0.76113300  0.54986400  1
  N  345  1  0.71216600  0.83736800  0.49351200  1
  N  353  1  0.19415100  0.83698700  0.50789400  1
  N  370  1  0.13128900  0.76078400  0.45159000  1
  N  383  1  0.44086900  0.83766900  0.24330800  1
  N  389  1  0.40546500  0.77421000  0.19127000  1
  N  421  1  0.44621800  0.71093000  0.88573200  1
  N  431  1  0.33978300  0.69449200  0.98691900  1
  N  438  1  0.27582400  0.64319300  0.95133800  1
  N  463  1  0.94530600  0.69275900  0.61531000  1
  N  464  1  0.00260700  0.63011800  0.69106600  1
  N  489  1  0.83874900  0.70966900  0.51409400  1
  N  490  1  0.06771300  0.70912600  0.48736300  1
  N  511  1  0.90456700  0.63010900  0.30964400  1
  N  514  1  0.96112800  0.69257300  0.38592300  1
  N  527  1  0.63281800  0.64351000  0.04900500  1
  N  548  1  0.56852400  0.69486500  0.01410700  1
  N  549  1  0.46241800  0.71176900  0.11522900  1
  N  570  1  0.71079700  0.46565100  0.88586100  1
  N  582  1  0.69482300  0.56706500  0.99197200  1
  N  601  1  0.19618000  0.43878600  0.88574100  1
  N  630  1  0.96721000  0.56638800  0.74286800  1
  N  647  1  0.76230600  0.50133200  0.82216800  1
  N  649  1  0.83832200  0.44466800  0.75929700  1
  N  668  1  0.06825400  0.45931000  0.75958100  1
  N  712  1  0.94006600  0.56639300  0.25800600  1
  N  724  1  0.83939900  0.45900200  0.24118300  1
  N  728  1  0.14544300  0.50131500  0.17789200  1
  N  749  1  0.06944100  0.44525200  0.24127100  1
  N  766  1  0.71196300  0.43883400  0.11449700  1
  N  798  1  0.21310600  0.56690100  0.00796700  1
  N  800  1  0.19688200  0.46505000  0.11447300  1
  N  815  1  0.21352000  0.33720000  0.99191500  1
  N  829  1  0.93882800  0.33780800  0.74265000  1
  N  839  1  0.14444600  0.40295400  0.82232700  1
  N  871  1  0.96846600  0.33777400  0.25812300  1
  N  875  1  0.76340500  0.40281000  0.17802600  1
  N  896  1  0.69451100  0.33740100  0.00821300  1
  N  910  1  0.63206500  0.26199700  0.95023100  1
  N  931  1  0.56819600  0.20985900  0.98475300  1
  N  934  1  0.46025600  0.19278000  0.88515200  1
  N  953  1  0.90387300  0.27388900  0.69090000  1
  N  967  1  0.96125100  0.21136000  0.61526100  1
  N  1007  1  0.83930000  0.19502900  0.48689500  1
  N  1010  1  0.77569000  0.14315600  0.45149000  1
  N  1024  1  0.06812500  0.19452300  0.51454800  1
  N  1039  1  0.94597300  0.21166800  0.38585400  1
  N  1041  1  0.00344100  0.27382400  0.30993400  1
  N  1073  1  0.44793500  0.19307000  0.11496800  1
  N  1089  1  0.33985600  0.20958700  0.01504200  1
  N  1090  1  0.27618400  0.26180800  0.04981900  1
  N  1108  1  0.43974700  0.06628300  0.75754100  1
  N  1112  1  0.40382600  0.12961100  0.80937700  1
  N  1115  1  0.64349100  0.00134700  0.67867200  1
  N  1142  1  0.71285800  0.06730500  0.50824600  1
  N  1155  1  0.19465300  0.06691600  0.49301700  1
  N  1162  1  0.13189900  0.14282200  0.54988800  1
  N  1165  1  0.26326500  0.00138600  0.32255200  1
  N  1180  1  0.50361200  0.12995900  0.19132200  1
  N  1182  1  0.46721200  0.06670900  0.24290800  1
  O  80  1  0.26812100  0.88306400  0.66747500  1
  O  81  1  0.24367800  0.89812800  0.69249800  1
  O  195  1  0.63833100  0.88330100  0.33416400  1
  O  196  1  0.66289800  0.89796100  0.30902200  1
  O  299  1  0.52179600  0.78534800  0.81523600  1
  O  300  1  0.50692200  0.75998800  0.79101900  1
  O  342  1  0.78645000  0.76711000  0.56941300  1
  O  343  1  0.76122800  0.74276500  0.55448300  1
  O  354  1  0.14511700  0.74245900  0.44688200  1
  O  371  1  0.11980000  0.76679000  0.43208800  1
  O  390  1  0.38595500  0.78569900  0.18521100  1
  O  391  1  0.40066300  0.76029400  0.20948000  1
  O  430  1  0.28716500  0.63722400  0.93173900  1
  O  439  1  0.26203900  0.66159300  0.94679300  1
  O  465  1  0.02213000  0.61869300  0.68493500  1
  O  466  1  0.00740200  0.64396000  0.70933600  1
  O  512  1  0.88499000  0.61869300  0.31562200  1
  O  513  1  0.89991300  0.64398200  0.29136100  1
  O  528  1  0.62165900  0.63756700  0.06871400  1
  O  529  1  0.64668500  0.66188200  0.05341300  1
  O  635  1  0.76839700  0.52084900  0.83361600  1
  O  648  1  0.74394700  0.50608500  0.80841900  1
  O  727  1  0.16382300  0.50608900  0.19160900  1
  O  750  1  0.13941400  0.52078500  0.16633200  1
  O  838  1  0.16275900  0.39828200  0.80848600  1
  O  840  1  0.13848400  0.38340100  0.83378300  1
  O  876  1  0.74502300  0.39817600  0.19178900  1
  O  877  1  0.76936800  0.38325000  0.16658600  1
  O  905  1  0.64593200  0.24374200  0.94536600  1
  O  911  1  0.62071600  0.26827400  0.93073300  1
  O  950  1  0.39895100  0.14343600  0.79111400  1
  O  951  1  0.88431100  0.28523600  0.68474500  1
  O  954  1  0.89911800  0.26005300  0.70918500  1
  O  1009  1  0.76184900  0.16144800  0.44669200  1
  O  1011  1  0.14571800  0.16115500  0.55460200  1
  O  1040  1  0.02306400  0.28510700  0.31601000  1
  O  1042  1  0.00809200  0.25991900  0.29167600  1
  O  1045  1  0.50831400  0.14380100  0.20961800  1
  O  1088  1  0.28764900  0.26813000  0.06923400  1
  O  1091  1  0.26234500  0.24356700  0.05480800  1
  O  1113  1  0.38438700  0.11801600  0.81545400  1
  O  1116  1  0.63734800  0.02095500  0.66740800  1
  O  1117  1  0.66177400  0.00604300  0.69254100  1
  O  1137  1  0.78716300  0.13704600  0.43201100  1
  O  1163  1  0.12049900  0.13673300  0.56941500  1
  O  1164  1  0.26934200  0.02096800  0.33389600  1
  O  1166  1  0.24493900  0.00606700  0.30873500  1
  O  1181  1  0.52310900  0.11836100  0.18543700  1
