# generated using pymatgen
data_H9C14(NO)2
_symmetry_space_group_name_H-M   'P 1'
_cell_length_a   36.01720000
_cell_length_b   36.01720000
_cell_length_c   44.36630000
_cell_angle_alpha   90.00000000
_cell_angle_beta   90.00000000
_cell_angle_gamma   90.00000000
_symmetry_Int_Tables_number   1
_chemical_formula_structural   H9C14(NO)2
_chemical_formula_sum   'H288 C448 N64 O64'
_cell_volume   57553.68115125
_cell_formula_units_Z   32
loop_
 _symmetry_equiv_pos_site_id
 _symmetry_equiv_pos_as_xyz
  1  'x, y, z'
loop_
 _atom_site_type_symbol
 _atom_site_label
 _atom_site_symmetry_multiplicity
 _atom_site_fract_x
 _atom_site_fract_y
 _atom_site_fract_z
 _atom_site_occupancy
  H  7  1  0.09672100  0.28129600  0.13940200  1
  H  16  1  0.00610000  0.27258800  0.08008300  1
  H  19  1  0.03355000  0.32127400  0.05248800  1
  H  20  1  0.13470600  0.28374500  0.09627000  1
  H  21  1  0.06211500  0.42192400  0.15710900  1
  H  22  1  0.07362200  0.15519600  0.03639200  1
  H  33  1  0.91863600  0.73385200  0.13933000  1
  H  42  1  0.00919000  0.74256200  0.08007900  1
  H  45  1  0.98191700  0.69359400  0.05257000  1
  H  46  1  0.88054400  0.73149500  0.09627300  1
  H  47  1  0.95844000  0.59408300  0.15357400  1
  H  48  1  0.94161700  0.86003700  0.03642100  1
  H  59  1  0.28129900  0.91852500  0.87584100  1
  H  68  1  0.27259000  0.00913900  0.93515700  1
  H  71  1  0.32127400  0.98169500  0.96275400  1
  H  72  1  0.28374200  0.88053200  0.91897300  1
  H  73  1  0.42192900  0.95310900  0.85813400  1
  H  74  1  0.15520700  0.94161700  0.97887200  1
  H  85  1  0.73385200  0.09660900  0.87591100  1
  H  94  1  0.74259500  0.00612500  0.93516100  1
  H  97  1  0.69360200  0.03332200  0.96266900  1
  H  98  1  0.73149800  0.13470200  0.91896900  1
  H  99  1  0.59408300  0.05680200  0.86165700  1
  H  100  1  0.86003900  0.07362800  0.97885000  1
  H  111  1  0.59688700  0.23388500  0.64000400  1
  H  120  1  0.50596400  0.24246000  0.58014600  1
  H  123  1  0.53357000  0.19393700  0.55249200  1
  H  124  1  0.63473900  0.23151100  0.59625300  1
  H  125  1  0.56234300  0.09339200  0.65704900  1
  H  126  1  0.57364300  0.36001400  0.53641200  1
  H  137  1  0.41847500  0.78144900  0.63993700  1
  H  146  1  0.50917400  0.77269200  0.58009400  1
  H  149  1  0.48190900  0.82165200  0.55259100  1
  H  150  1  0.38051600  0.78373700  0.59625700  1
  H  151  1  0.45830900  0.92106900  0.65360000  1
  H  152  1  0.44162000  0.65520400  0.53642100  1
  H  163  1  0.78135500  0.59688400  0.37523800  1
  H  172  1  0.77281400  0.50595000  0.43509000  1
  H  175  1  0.82130500  0.53357000  0.46275000  1
  H  176  1  0.78372900  0.63474100  0.41899000  1
  H  177  1  0.92184900  0.56230900  0.35819800  1
  H  178  1  0.65524600  0.57365100  0.47885000  1
  H  189  1  0.23379800  0.41847500  0.37530800  1
  H  198  1  0.24258200  0.50910700  0.43514600  1
  H  201  1  0.19359900  0.48191200  0.46264700  1
  H  202  1  0.23150900  0.38051300  0.41898700  1
  H  203  1  0.09417300  0.45830900  0.36163700  1
  H  204  1  0.36003900  0.44161400  0.47885000  1
  H  215  1  0.00150200  0.53351500  0.04924000  1
  H  216  1  0.99875700  0.54575900  0.14371700  1
  H  217  1  0.01356400  0.48284700  0.14882400  1
  H  218  1  0.01659800  0.46980900  0.05425700  1
  H  220  1  0.02097800  0.42875900  0.12861100  1
  H  222  1  0.98332200  0.59006000  0.06867300  1
  H  229  1  0.53351500  0.01373400  0.96600500  1
  H  230  1  0.54575600  0.01648000  0.87152300  1
  H  231  1  0.48284700  0.00168000  0.86642200  1
  H  232  1  0.46980600  0.99865100  0.96098900  1
  H  234  1  0.42873100  0.99431100  0.88659300  1
  H  236  1  0.59006600  0.03183200  0.94658200  1
  H  243  1  0.50151300  0.98172300  0.54924400  1
  H  244  1  0.49876200  0.96947900  0.64371900  1
  H  245  1  0.51355800  0.03239600  0.64882000  1
  H  246  1  0.51659800  0.04543600  0.55425500  1
  H  248  1  0.52102100  0.08651300  0.62867200  1
  H  250  1  0.48341400  0.92515300  0.56868200  1
  H  257  1  0.03352000  0.50152200  0.46599400  1
  H  258  1  0.04576700  0.49876700  0.37151700  1
  H  259  1  0.98283400  0.51358300  0.36641100  1
  H  260  1  0.96981800  0.51661400  0.46097700  1
  H  262  1  0.92877100  0.52114300  0.38667000  1
  H  264  1  0.09009400  0.48347800  0.44656900  1
  H  271  1  0.19865500  0.33637800  0.27621000  1
  H  272  1  0.12108700  0.42284300  0.28467800  1
  H  273  1  0.09306100  0.40331300  0.23977200  1
  H  274  1  0.17039300  0.31643800  0.23064800  1
  H  276  1  0.08667300  0.36581400  0.20211100  1
  H  278  1  0.20349200  0.37544000  0.31757700  1
  H  285  1  0.81658800  0.67887600  0.27619900  1
  H  286  1  0.89415400  0.59240300  0.28467600  1
  H  287  1  0.92218800  0.61193800  0.23976800  1
  H  288  1  0.84484900  0.69880000  0.23064400  1
  H  290  1  0.92850700  0.64902900  0.20178900  1
  H  292  1  0.81169600  0.63987800  0.31749100  1
  H  299  1  0.33637800  0.81658800  0.73903200  1
  H  300  1  0.42284300  0.89415600  0.73056400  1
  H  301  1  0.40331600  0.92218200  0.77547000  1
  H  302  1  0.31644300  0.84484700  0.78459600  1
  H  304  1  0.36584200  0.92854000  0.81314500  1
  H  306  1  0.37546500  0.81171200  0.69768800  1
  H  313  1  0.67887600  0.19865000  0.73904100  1
  H  314  1  0.59240300  0.12108500  0.73056400  1
  H  315  1  0.61194400  0.09305200  0.77547500  1
  H  316  1  0.69880800  0.17038800  0.78459400  1
  H  318  1  0.64906800  0.08669500  0.81343100  1
  H  320  1  0.63987200  0.20356400  0.69776700  1
  H  327  1  0.14429600  0.06035200  0.01313300  1
  H  328  1  0.22939400  0.12779000  0.97772700  1
  H  329  1  0.20171300  0.17940500  0.00230900  1
  H  330  1  0.11790000  0.11061200  0.03722400  1
  H  332  1  0.15361700  0.20594100  0.02935200  1
  H  334  1  0.18569300  0.03648000  0.98624100  1
  H  341  1  0.87095600  0.95482200  0.01315900  1
  H  342  1  0.78581700  0.88737600  0.97770500  1
  H  343  1  0.81355100  0.83581800  0.00229600  1
  H  344  1  0.89733800  0.90464300  0.03720100  1
  H  346  1  0.86145800  0.80946600  0.02954700  1
  H  348  1  0.83122000  0.97965200  0.98623600  1
  H  355  1  0.06034300  0.87091200  0.00212200  1
  H  356  1  0.12784700  0.78583300  0.03751400  1
  H  357  1  0.17940500  0.81355100  0.01290800  1
  H  358  1  0.11058300  0.89736000  0.97801400  1
  H  360  1  0.20618100  0.86188300  0.98598600  1
  H  362  1  0.03646200  0.82989500  0.02898100  1
  H  369  1  0.95491900  0.14430900  0.00210600  1
  H  370  1  0.88745100  0.22938900  0.03751400  1
  H  371  1  0.83583200  0.20169400  0.01292400  1
  H  372  1  0.90465100  0.11789000  0.97801800  1
  H  374  1  0.80921100  0.15351100  0.98579000  1
  H  376  1  0.97866900  0.18560800  0.02918200  1
  H  383  1  0.64439000  0.45488000  0.51306600  1
  H  384  1  0.72942700  0.38732900  0.47770100  1
  H  385  1  0.70169600  0.33582000  0.50231400  1
  H  386  1  0.61790800  0.40465400  0.53720600  1
  H  388  1  0.65361300  0.30930200  0.52935500  1
  H  390  1  0.68570300  0.47833300  0.48636300  1
  H  397  1  0.37095600  0.56042400  0.51315800  1
  H  398  1  0.28581400  0.62786700  0.47770800  1
  H  399  1  0.31355000  0.67942600  0.50229800  1
  H  400  1  0.39733800  0.61060000  0.53720100  1
  H  402  1  0.36145800  0.70577400  0.52954700  1
  H  404  1  0.33112200  0.53556700  0.48634500  1
  H  411  1  0.56034600  0.64432900  0.50212300  1
  H  412  1  0.62785000  0.72941000  0.53751400  1
  H  413  1  0.67940600  0.70169000  0.51290800  1
  H  414  1  0.61058400  0.61788300  0.47801400  1
  H  416  1  0.70618200  0.65336000  0.48598400  1
  H  418  1  0.53638800  0.68525900  0.52894900  1
  H  425  1  0.45492400  0.37083400  0.50214700  1
  H  426  1  0.38735100  0.28580800  0.53750500  1
  H  427  1  0.33582000  0.31355900  0.51291500  1
  H  428  1  0.40467100  0.39734400  0.47802600  1
  H  430  1  0.30921100  0.36173300  0.48579000  1
  H  432  1  0.47812500  0.32977600  0.52936400  1
  H  439  1  0.20777900  0.33682500  0.59019500  1
  H  448  1  0.11715800  0.32811700  0.53087600  1
  H  451  1  0.14460800  0.37680300  0.50328100  1
  H  452  1  0.24576400  0.33927400  0.54706300  1
  H  453  1  0.17317300  0.47745300  0.60790200  1
  H  454  1  0.18468000  0.21072500  0.48718500  1
  H  465  1  0.02969410  0.78938100  0.59012300  1
  H  474  1  0.12024800  0.79809100  0.53087200  1
  H  477  1  0.09297510  0.74912300  0.50336300  1
  H  478  1  0.99160200  0.78702400  0.54706600  1
  H  479  1  0.06949810  0.64961200  0.60436700  1
  H  480  1  0.05267510  0.91556600  0.48721400  1
  H  491  1  0.39235700  0.97405400  0.32663400  1
  H  500  1  0.38364800  0.06466800  0.38595000  1
  H  503  1  0.43233200  0.03722400  0.41354700  1
  H  504  1  0.39480000  0.93606100  0.36976600  1
  H  505  1  0.53298700  0.00863803  0.30892700  1
  H  506  1  0.26626500  0.99714600  0.42966500  1
  H  517  1  0.84491000  0.15213800  0.32670400  1
  H  526  1  0.85365300  0.06165400  0.38595400  1
  H  529  1  0.80466000  0.08885100  0.41346200  1
  H  530  1  0.84255600  0.19023100  0.36976200  1
  H  531  1  0.70514100  0.11233100  0.31245000  1
  H  532  1  0.97109700  0.12915700  0.42964300  1
  H  543  1  0.70794500  0.28941400  0.09079660  1
  H  552  1  0.61702200  0.29798900  0.03093860  1
  H  555  1  0.64462800  0.24946600  0.00328461  1
  H  556  1  0.74579700  0.28704000  0.04704560  1
  H  557  1  0.67340100  0.14892100  0.10784200  1
  H  558  1  0.68470100  0.41554300  0.98720500  1
  H  569  1  0.52953300  0.83697800  0.09072960  1
  H  578  1  0.62023200  0.82822100  0.03088660  1
  H  581  1  0.59296700  0.87718100  0.00338361  1
  H  582  1  0.49157400  0.83926600  0.04704960  1
  H  583  1  0.56936700  0.97659800  0.10439300  1
  H  584  1  0.55267800  0.71073300  0.98721400  1
  H  595  1  0.89241300  0.65241300  0.82603100  1
  H  604  1  0.88387200  0.56147900  0.88588300  1
  H  607  1  0.93236300  0.58909900  0.91354300  1
  H  608  1  0.89478700  0.69027000  0.86978300  1
  H  609  1  0.03290710  0.61783800  0.80899100  1
  H  610  1  0.76630400  0.62918000  0.92964300  1
  H  621  1  0.34485600  0.47400400  0.82610100  1
  H  630  1  0.35364000  0.56463600  0.88593900  1
  H  633  1  0.30465700  0.53744100  0.91344000  1
  H  634  1  0.34256700  0.43604200  0.86978000  1
  H  635  1  0.20523100  0.51383800  0.81243000  1
  H  636  1  0.47109700  0.49714300  0.92964300  1
  H  647  1  0.11256000  0.58904400  0.50003300  1
  H  648  1  0.10981500  0.60128800  0.59451000  1
  H  649  1  0.12462200  0.53837600  0.59961700  1
  H  650  1  0.12765600  0.52533800  0.50505000  1
  H  652  1  0.13203600  0.48428800  0.57940400  1
  H  654  1  0.09438010  0.64558900  0.51946600  1
  H  661  1  0.64457300  0.06926300  0.41679800  1
  H  662  1  0.65681400  0.07200900  0.32231600  1
  H  663  1  0.59390500  0.05720900  0.31721500  1
  H  664  1  0.58086400  0.05418000  0.41178200  1
  H  666  1  0.53978900  0.04984000  0.33738600  1
  H  668  1  0.70112400  0.08736100  0.39737500  1
  H  675  1  0.61257100  0.03725200  0.00003661  1
  H  676  1  0.60982000  0.02500800  0.09451160  1
  H  677  1  0.62461600  0.08792500  0.09961260  1
  H  678  1  0.62765600  0.10096500  0.00504761  1
  H  680  1  0.63207900  0.14204200  0.07946460  1
  H  682  1  0.59447200  0.98068200  0.01947460  1
  H  689  1  0.14457800  0.55705100  0.91678700  1
  H  690  1  0.15682500  0.55429600  0.82231000  1
  H  691  1  0.09389210  0.56911200  0.81720400  1
  H  692  1  0.08087610  0.57214300  0.91177000  1
  H  694  1  0.03982910  0.57667200  0.83746300  1
  H  696  1  0.20115200  0.53900700  0.89736200  1
  H  703  1  0.30971300  0.39190700  0.72700300  1
  H  704  1  0.23214500  0.47837200  0.73547100  1
  H  705  1  0.20411900  0.45884200  0.69056500  1
  H  706  1  0.28145100  0.37196700  0.68144100  1
  H  708  1  0.19773100  0.42134300  0.65290400  1
  H  710  1  0.31455000  0.43096900  0.76837000  1
  H  717  1  0.92764600  0.73440500  0.72699200  1
  H  718  1  0.00521205  0.64793200  0.73546900  1
  H  719  1  0.03324610  0.66746700  0.69056100  1
  H  720  1  0.95590700  0.75432900  0.68143700  1
  H  722  1  0.03956510  0.70455800  0.65258200  1
  H  724  1  0.92275400  0.69540700  0.76828400  1
  H  731  1  0.44743600  0.87211700  0.18982500  1
  H  732  1  0.53390100  0.94968500  0.18135700  1
  H  733  1  0.51437400  0.97771100  0.22626300  1
  H  734  1  0.42750100  0.90037600  0.23538900  1
  H  736  1  0.47690000  0.98406900  0.26393800  1
  H  738  1  0.48652300  0.86724100  0.14848100  1
  H  745  1  0.78993400  0.25417900  0.18983400  1
  H  746  1  0.70346100  0.17661400  0.18135700  1
  H  747  1  0.72300200  0.14858100  0.22626800  1
  H  748  1  0.80986600  0.22591700  0.23538700  1
  H  750  1  0.76012600  0.14222400  0.26422400  1
  H  752  1  0.75093000  0.25909300  0.14856000  1
  H  759  1  0.25535400  0.11588100  0.46392600  1
  H  760  1  0.34045200  0.18331900  0.42852000  1
  H  761  1  0.31277100  0.23493400  0.45310200  1
  H  762  1  0.22895800  0.16614100  0.48801700  1
  H  764  1  0.26467500  0.26147000  0.48014500  1
  H  766  1  0.29675100  0.09200900  0.43703400  1
  H  773  1  0.98201400  0.01035100  0.46395200  1
  H  774  1  0.89687500  0.94290500  0.42849800  1
  H  775  1  0.92460900  0.89134700  0.45308900  1
  H  776  1  0.00839605  0.96017200  0.48799400  1
  H  778  1  0.97251600  0.86499500  0.48034000  1
  H  780  1  0.94227800  0.03518100  0.43702900  1
  H  787  1  0.17140100  0.92644100  0.45291500  1
  H  788  1  0.23890500  0.84136200  0.48830700  1
  H  789  1  0.29046300  0.86908000  0.46370100  1
  H  790  1  0.22164100  0.95288900  0.42880700  1
  H  792  1  0.31723900  0.91741200  0.43677900  1
  H  794  1  0.14752000  0.88542400  0.47977400  1
  H  801  1  0.06597710  0.19983800  0.45289900  1
  H  802  1  0.99850900  0.28491800  0.48830700  1
  H  803  1  0.94689000  0.25722300  0.46371700  1
  H  804  1  0.01570910  0.17341900  0.42881100  1
  H  806  1  0.92026900  0.20904000  0.43658300  1
  H  808  1  0.08972710  0.24113700  0.47997500  1
  H  815  1  0.75544800  0.51040900  0.96385900  1
  H  816  1  0.84048500  0.44285800  0.92849400  1
  H  817  1  0.81275400  0.39134900  0.95310700  1
  H  818  1  0.72896600  0.46018300  0.98799900  1
  H  820  1  0.76467100  0.36483100  0.98014800  1
  H  822  1  0.79676100  0.53386200  0.93715600  1
  H  829  1  0.48201400  0.61595300  0.96395100  1
  H  830  1  0.39687200  0.68339600  0.92850100  1
  H  831  1  0.42460800  0.73495500  0.95309100  1
  H  832  1  0.50839600  0.66612900  0.98799400  1
  H  834  1  0.47251600  0.76130300  0.98034000  1
  H  836  1  0.44218000  0.59109600  0.93713800  1
  H  843  1  0.67140400  0.69985800  0.95291600  1
  H  844  1  0.73890800  0.78493900  0.98830700  1
  H  845  1  0.79046400  0.75721900  0.96370100  1
  H  846  1  0.72164200  0.67341200  0.92880700  1
  H  848  1  0.81724000  0.70888900  0.93677700  1
  H  850  1  0.64744600  0.74078800  0.97974200  1
  H  857  1  0.56598200  0.42636300  0.95294000  1
  H  858  1  0.49840900  0.34133700  0.98829800  1
  H  859  1  0.44687800  0.36908800  0.96370800  1
  H  860  1  0.51572900  0.45287300  0.92881900  1
  H  862  1  0.42026900  0.41726200  0.93658300  1
  H  864  1  0.58918300  0.38530500  0.98015700  1
  C  1  1  0.06539400  0.30423500  0.10386000  1
  C  2  1  0.08381500  0.30488500  0.13199500  1
  C  3  1  0.08523200  0.33606200  0.15089200  1
  C  4  1  0.06651500  0.36848500  0.14030900  1
  C  5  1  0.04612200  0.36916500  0.11243800  1
  C  6  1  0.04708900  0.33703400  0.09429200  1
  C  9  1  0.06431300  0.27053000  0.08679200  1
  C  10  1  0.09650800  0.24842800  0.08128100  1
  C  11  1  0.09449600  0.21463600  0.06493900  1
  C  12  1  0.05855900  0.20296400  0.05509200  1
  C  13  1  0.02606800  0.22412600  0.06006900  1
  C  14  1  0.02967200  0.25743400  0.07611900  1
  C  27  1  0.94990200  0.71074400  0.10365100  1
  C  28  1  0.93147800  0.71023600  0.13186600  1
  C  29  1  0.92998100  0.67906700  0.15075400  1
  C  30  1  0.94865500  0.64678800  0.13998800  1
  C  31  1  0.96851300  0.64533600  0.11216700  1
  C  32  1  0.96813500  0.67765700  0.09384100  1
  C  35  1  0.95095700  0.74467000  0.08680000  1
  C  36  1  0.91875300  0.76680600  0.08128600  1
  C  37  1  0.92077400  0.80059600  0.06494100  1
  C  38  1  0.95674300  0.81221500  0.05512400  1
  C  39  1  0.98924400  0.79100300  0.06016400  1
  C  40  1  0.98561800  0.75770500  0.07615100  1
  C  53  1  0.30423800  0.94984900  0.91138600  1
  C  54  1  0.30488800  0.93142200  0.88325200  1
  C  55  1  0.33605100  0.93005000  0.86433000  1
  C  56  1  0.36849100  0.94872500  0.87493800  1
  C  57  1  0.36916300  0.96909000  0.90281700  1
  C  58  1  0.33703100  0.96816600  0.92095500  1
  C  61  1  0.27052700  0.95092900  0.92844700  1
  C  62  1  0.24843800  0.91872300  0.93396900  1
  C  63  1  0.21463900  0.92073800  0.95030300  1
  C  64  1  0.20297100  0.95668200  0.96014600  1
  C  65  1  0.22411900  0.98919400  0.95513400  1
  C  66  1  0.25743300  0.98557100  0.93911900  1
  C  79  1  0.71075000  0.06533200  0.91158900  1
  C  80  1  0.71023900  0.08376100  0.88337400  1
  C  81  1  0.67905900  0.08528400  0.86449900  1
  C  82  1  0.64679100  0.06658200  0.87524900  1
  C  83  1  0.64535000  0.04670200  0.90305100  1
  C  84  1  0.67765400  0.04711400  0.92140300  1
  C  87  1  0.74468300  0.06428800  0.92845300  1
  C  88  1  0.76679500  0.09650400  0.93396900  1
  C  89  1  0.80059800  0.09449900  0.95030800  1
  C  90  1  0.81228700  0.05854900  0.96014900  1
  C  91  1  0.79108900  0.02600100  0.95514000  1
  C  92  1  0.75779400  0.02967900  0.93912600  1
  C  105  1  0.56565200  0.21104000  0.60404000  1
  C  106  1  0.58429900  0.21029700  0.63234300  1
  C  107  1  0.58560100  0.17856600  0.65113500  1
  C  108  1  0.56678800  0.14676500  0.64016900  1
  C  109  1  0.54630300  0.14615200  0.61240700  1
  C  110  1  0.54722800  0.17829500  0.59432800  1
  C  113  1  0.56434400  0.24467300  0.58685600  1
  C  114  1  0.59650700  0.26681500  0.58128400  1
  C  115  1  0.59444700  0.30058400  0.56494100  1
  C  116  1  0.55837500  0.31203200  0.55520100  1
  C  117  1  0.52573200  0.29048100  0.56037400  1
  C  118  1  0.52954700  0.25749600  0.57623800  1
  C  131  1  0.44965500  0.80445800  0.60382800  1
  C  132  1  0.43100000  0.80506300  0.63222200  1
  C  133  1  0.42958900  0.83680300  0.65100200  1
  C  134  1  0.44840300  0.86841900  0.63984700  1
  C  135  1  0.46834300  0.86982900  0.61215000  1
  C  136  1  0.46800400  0.83749700  0.59388200  1
  C  139  1  0.45093200  0.77056800  0.58684200  1
  C  140  1  0.41875300  0.74843400  0.58128600  1
  C  141  1  0.42077400  0.71464500  0.56493800  1
  C  142  1  0.45674000  0.70302500  0.55512000  1
  C  143  1  0.48924400  0.72424600  0.56015800  1
  C  144  1  0.48560700  0.75754400  0.57615600  1
  C  157  1  0.80421100  0.56566100  0.41120400  1
  C  158  1  0.80494900  0.58430700  0.38290100  1
  C  159  1  0.83667600  0.58560100  0.36410100  1
  C  160  1  0.86849400  0.56681600  0.37506700  1
  C  161  1  0.86907700  0.54632800  0.40282000  1
  C  162  1  0.83694800  0.54721900  0.42090800  1
  C  165  1  0.77057100  0.56434400  0.42837700  1
  C  166  1  0.74843700  0.59651800  0.43396500  1
  C  167  1  0.71466700  0.59445000  0.45029900  1
  C  168  1  0.70323400  0.55837500  0.46004600  1
  C  169  1  0.72445400  0.52585200  0.45491600  1
  C  170  1  0.75773500  0.52953100  0.43897600  1
  C  183  1  0.21079200  0.44966000  0.41141400  1
  C  184  1  0.21018400  0.43100000  0.38302100  1
  C  185  1  0.17844100  0.42957800  0.36424500  1
  C  186  1  0.14682800  0.44839700  0.37539300  1
  C  187  1  0.14542500  0.46836500  0.40307200  1
  C  188  1  0.17774300  0.46799600  0.42136300  1
  C  191  1  0.24468800  0.45092600  0.42840900  1
  C  192  1  0.26680000  0.41873900  0.43396700  1
  C  193  1  0.30059800  0.42074600  0.45030800  1
  C  194  1  0.31228400  0.45669600  0.46014900  1
  C  195  1  0.29108000  0.48924100  0.45514600  1
  C  196  1  0.25778500  0.48555700  0.43911800  1
  C  209  1  0.01107600  0.49295400  0.12730400  1
  C  210  1  0.00240200  0.53059700  0.12455300  1
  C  211  1  0.99971700  0.54710300  0.09583600  1
  C  212  1  0.00414800  0.52326100  0.07062200  1
  C  213  1  0.01281800  0.48541500  0.07324000  1
  C  214  1  0.01563600  0.46928200  0.10178800  1
  C  219  1  0.02489700  0.43251000  0.10751500  1
  C  221  1  0.98948000  0.58419100  0.08987300  1
  C  223  1  0.49295100  0.00416500  0.88794300  1
  C  224  1  0.53059400  0.01283700  0.89068800  1
  C  225  1  0.54709200  0.01553800  0.91940400  1
  C  226  1  0.52325900  0.01109300  0.94462300  1
  C  227  1  0.48541800  0.00241300  0.94200700  1
  C  228  1  0.46927600  0.99961400  0.91346000  1
  C  233  1  0.43247700  0.99048000  0.90769700  1
  C  235  1  0.58420400  0.02565400  0.92538400  1
  C  237  1  0.51107500  0.02229400  0.62729900  1
  C  238  1  0.50240500  0.98464400  0.62455400  1
  C  239  1  0.49969200  0.96813800  0.59584000  1
  C  240  1  0.50415400  0.99197900  0.57062300  1
  C  241  1  0.51282200  0.02983100  0.57324000  1
  C  242  1  0.51562600  0.04597900  0.60178600  1
  C  247  1  0.52479100  0.08279400  0.60755600  1
  C  249  1  0.48961900  0.93098300  0.58988100  1
  C  251  1  0.99294300  0.51105900  0.38792800  1
  C  252  1  0.03059200  0.50238800  0.39068000  1
  C  253  1  0.04710100  0.49969500  0.41939300  1
  C  254  1  0.02325900  0.50412900  0.44461300  1
  C  255  1  0.98541300  0.51279400  0.44199100  1
  C  256  1  0.96926800  0.51560400  0.41344500  1
  C  261  1  0.93254100  0.52512400  0.40776000  1
  C  263  1  0.08426600  0.48968300  0.42536800  1
  C  265  1  0.11541800  0.38809500  0.24691500  1
  C  266  1  0.13208500  0.40036700  0.27382500  1
  C  267  1  0.16336300  0.38220900  0.28579600  1
  C  268  1  0.17616900  0.35110700  0.26879000  1
  C  269  1  0.15941400  0.33879400  0.24166300  1
  C  270  1  0.12796900  0.35693200  0.22974200  1
  C  275  1  0.10892600  0.35044900  0.20193200  1
  C  277  1  0.18169700  0.39131600  0.31341600  1
  C  279  1  0.89982900  0.62715100  0.24690200  1
  C  280  1  0.88316200  0.61487600  0.27381800  1
  C  281  1  0.85188200  0.63304200  0.28577800  1
  C  282  1  0.83907700  0.66414100  0.26878100  1
  C  283  1  0.85583000  0.67643800  0.24165200  1
  C  284  1  0.88732600  0.65834100  0.22974200  1
  C  289  1  0.90638400  0.66470200  0.20186600  1
  C  291  1  0.83351000  0.62403500  0.31336700  1
  C  293  1  0.38809500  0.89982900  0.76832700  1
  C  294  1  0.40036700  0.88315900  0.74141700  1
  C  295  1  0.38221200  0.85187900  0.72944600  1
  C  296  1  0.35110700  0.83907400  0.74645300  1
  C  297  1  0.33879100  0.85583300  0.77357700  1
  C  298  1  0.35691800  0.88728800  0.78548900  1
  C  303  1  0.35048500  0.90627800  0.81333000  1
  C  305  1  0.39128000  0.83355800  0.70181000  1
  C  307  1  0.62715100  0.11541600  0.76834100  1
  C  308  1  0.61487600  0.13208200  0.74142400  1
  C  309  1  0.63303700  0.16336200  0.72946400  1
  C  310  1  0.66413900  0.17616700  0.74646400  1
  C  311  1  0.67644400  0.15941100  0.77358800  1
  C  312  1  0.65831100  0.12795000  0.78552000  1
  C  317  1  0.66476000  0.10880400  0.81334800  1
  C  319  1  0.62404100  0.18173500  0.70186900  1
  C  321  1  0.18941600  0.15402900  0.00504100  1
  C  322  1  0.20591200  0.12331400  0.99016000  1
  C  323  1  0.19036500  0.08700600  0.99224500  1
  C  324  1  0.15768300  0.08514600  0.01020600  1
  C  325  1  0.14143600  0.11530200  0.02502300  1
  C  326  1  0.15763500  0.15081700  0.02388700  1
  C  331  1  0.14025900  0.18316200  0.03552200  1
  C  333  1  0.20437300  0.05373500  0.97818500  1
  C  335  1  0.82582200  0.86120000  0.00503900  1
  C  336  1  0.80921600  0.89179900  0.99013100  1
  C  337  1  0.82427000  0.92789300  0.99199700  1
  C  338  1  0.85738500  0.93002800  0.01014400  1
  C  339  1  0.87378800  0.89994500  0.02500700  1
  C  340  1  0.85760700  0.86442900  0.02389000  1
  C  345  1  0.87519600  0.83217800  0.03543500  1
  C  347  1  0.81257000  0.96269000  0.97892400  1
  C  349  1  0.15402500  0.82584500  0.01019500  1
  C  350  1  0.12338100  0.80929100  0.02509200  1
  C  351  1  0.08714500  0.82463400  0.02308800  1
  C  352  1  0.08515700  0.85748800  0.00506600  1
  C  353  1  0.11526400  0.87381900  0.99021400  1
  C  354  1  0.15076600  0.85761300  0.99135500  1
  C  359  1  0.18319700  0.87469900  0.97963900  1
  C  361  1  0.05351400  0.81117100  0.03691200  1
  C  363  1  0.86121900  0.18941200  0.01020200  1
  C  364  1  0.89193300  0.20591300  0.02507400  1
  C  365  1  0.92823200  0.19039600  0.02298700  1
  C  366  1  0.93012000  0.15769300  0.00501800  1
  C  367  1  0.89997000  0.14142900  0.99021900  1
  C  368  1  0.86446800  0.15763700  0.99137100  1
  C  373  1  0.83213900  0.14033000  0.97972900  1
  C  375  1  0.96151000  0.20436900  0.03705000  1
  C  377  1  0.68941500  0.36120000  0.50504800  1
  C  378  1  0.70599400  0.39180700  0.49013600  1
  C  379  1  0.69081500  0.42797300  0.49202900  1
  C  380  1  0.65784200  0.43005600  0.51016300  1
  C  381  1  0.64145500  0.39995400  0.52501400  1
  C  382  1  0.65763600  0.36442900  0.52388900  1
  C  387  1  0.64025500  0.33208000  0.53552200  1
  C  389  1  0.70417200  0.46163800  0.47814900  1
  C  391  1  0.32582200  0.65404300  0.50503900  1
  C  392  1  0.30921600  0.62344400  0.49013200  1
  C  393  1  0.32428100  0.58734700  0.49199800  1
  C  394  1  0.35738800  0.58521500  0.51014200  1
  C  395  1  0.37378800  0.61529800  0.52500700  1
  C  396  1  0.35760700  0.65081400  0.52388900  1
  C  401  1  0.37519900  0.68306600  0.53543400  1
  C  403  1  0.31254500  0.55256400  0.47892500  1
  C  405  1  0.65402400  0.68939900  0.51019400  1
  C  406  1  0.62338900  0.70596000  0.52509300  1
  C  407  1  0.58718600  0.69067600  0.52311400  1
  C  408  1  0.58516000  0.65776400  0.50507100  1
  C  409  1  0.61526500  0.64142400  0.49021500  1
  C  410  1  0.65076400  0.65763000  0.49135500  1
  C  415  1  0.68319900  0.64054100  0.47963900  1
  C  417  1  0.55339400  0.70388600  0.53683400  1
  C  419  1  0.36120500  0.32583600  0.51019900  1
  C  420  1  0.39182100  0.30925800  0.52509100  1
  C  421  1  0.42798700  0.32438400  0.52315400  1
  C  422  1  0.43008100  0.35743800  0.50509100  1
  C  423  1  0.39998100  0.37380500  0.49023100  1
  C  424  1  0.36447000  0.35761000  0.49137100  1
  C  429  1  0.33214100  0.37491500  0.47973000  1
  C  431  1  0.46147400  0.31058800  0.53710000  1
  C  433  1  0.17645200  0.35976400  0.55465300  1
  C  434  1  0.19487300  0.36041400  0.58278800  1
  C  435  1  0.19629000  0.39159100  0.60168500  1
  C  436  1  0.17757300  0.42401400  0.59110200  1
  C  437  1  0.15718000  0.42469400  0.56323100  1
  C  438  1  0.15814700  0.39256300  0.54508500  1
  C  441  1  0.17537100  0.32605900  0.53758500  1
  C  442  1  0.20756600  0.30395700  0.53207400  1
  C  443  1  0.20555400  0.27016500  0.51573200  1
  C  444  1  0.16961700  0.25849300  0.50588500  1
  C  445  1  0.13712600  0.27965500  0.51086200  1
  C  446  1  0.14073000  0.31296300  0.52691200  1
  C  459  1  0.06096010  0.76627300  0.55444400  1
  C  460  1  0.04253610  0.76576500  0.58265900  1
  C  461  1  0.04103910  0.73459600  0.60154700  1
  C  462  1  0.05971310  0.70231700  0.59078100  1
  C  463  1  0.07957110  0.70086500  0.56296000  1
  C  464  1  0.07919310  0.73318600  0.54463400  1
  C  467  1  0.06201510  0.80019900  0.53759300  1
  C  468  1  0.02981110  0.82233500  0.53207900  1
  C  469  1  0.03183210  0.85612500  0.51573400  1
  C  470  1  0.06780110  0.86774400  0.50591700  1
  C  471  1  0.10030200  0.84653200  0.51095700  1
  C  472  1  0.09667610  0.81323400  0.52694400  1
  C  485  1  0.41529600  0.00537803  0.36217900  1
  C  486  1  0.41594600  0.98695100  0.33404500  1
  C  487  1  0.44710900  0.98557900  0.31512300  1
  C  488  1  0.47954900  0.00425403  0.32573100  1
  C  489  1  0.48022100  0.02461900  0.35361000  1
  C  490  1  0.44808900  0.02369500  0.37174800  1
  C  493  1  0.38158500  0.00645803  0.37924000  1
  C  494  1  0.35949600  0.97425200  0.38476200  1
  C  495  1  0.32569700  0.97626700  0.40109600  1
  C  496  1  0.31402900  0.01221100  0.41093900  1
  C  497  1  0.33517700  0.04472300  0.40592700  1
  C  498  1  0.36849100  0.04110000  0.38991200  1
  C  511  1  0.82180800  0.12086100  0.36238200  1
  C  512  1  0.82129700  0.13929000  0.33416700  1
  C  513  1  0.79011700  0.14081300  0.31529200  1
  C  514  1  0.75784900  0.12211100  0.32604200  1
  C  515  1  0.75640800  0.10223100  0.35384400  1
  C  516  1  0.78871200  0.10264300  0.37219600  1
  C  519  1  0.85574100  0.11981700  0.37924600  1
  C  520  1  0.87785300  0.15203300  0.38476200  1
  C  521  1  0.91165600  0.15002800  0.40110100  1
  C  522  1  0.92334500  0.11407800  0.41094200  1
  C  523  1  0.90214700  0.08153000  0.40593300  1
  C  524  1  0.86885200  0.08520800  0.38991900  1
  C  537  1  0.67671000  0.26656900  0.05483260  1
  C  538  1  0.69535700  0.26582600  0.08313560  1
  C  539  1  0.69665900  0.23409500  0.10192800  1
  C  540  1  0.67784600  0.20229400  0.09096160  1
  C  541  1  0.65736100  0.20168100  0.06319960  1
  C  542  1  0.65828600  0.23382400  0.04512060  1
  C  545  1  0.67540200  0.30020200  0.03764860  1
  C  546  1  0.70756500  0.32234400  0.03207660  1
  C  547  1  0.70550500  0.35611300  0.01573360  1
  C  548  1  0.66943300  0.36756100  0.00599361  1
  C  549  1  0.63679000  0.34601000  0.01116660  1
  C  550  1  0.64060500  0.31302500  0.02703060  1
  C  563  1  0.56071300  0.85998700  0.05462060  1
  C  564  1  0.54205800  0.86059200  0.08301460  1
  C  565  1  0.54064700  0.89233200  0.10179500  1
  C  566  1  0.55946100  0.92394800  0.09063960  1
  C  567  1  0.57940100  0.92535800  0.06294260  1
  C  568  1  0.57906200  0.89302600  0.04467460  1
  C  571  1  0.56199000  0.82609700  0.03763460  1
  C  572  1  0.52981100  0.80396300  0.03207860  1
  C  573  1  0.53183200  0.77017400  0.01573060  1
  C  574  1  0.56779800  0.75855400  0.00591261  1
  C  575  1  0.60030200  0.77977500  0.01095060  1
  C  576  1  0.59666500  0.81307300  0.02694860  1
  C  589  1  0.91526900  0.62119000  0.86199700  1
  C  590  1  0.91600700  0.63983600  0.83369400  1
  C  591  1  0.94773400  0.64113000  0.81489400  1
  C  592  1  0.97955200  0.62234500  0.82586000  1
  C  593  1  0.98013500  0.60185700  0.85361300  1
  C  594  1  0.94800600  0.60274800  0.87170100  1
  C  597  1  0.88162900  0.61987300  0.87917000  1
  C  598  1  0.85949500  0.65204700  0.88475800  1
  C  599  1  0.82572500  0.64997900  0.90109200  1
  C  600  1  0.81429200  0.61390400  0.91083900  1
  C  601  1  0.83551200  0.58138100  0.90570900  1
  C  602  1  0.86879300  0.58506000  0.88976900  1
  C  615  1  0.32185000  0.50518900  0.86220700  1
  C  616  1  0.32124200  0.48652900  0.83381400  1
  C  617  1  0.28949900  0.48510700  0.81503800  1
  C  618  1  0.25788600  0.50392600  0.82618600  1
  C  619  1  0.25648300  0.52389400  0.85386500  1
  C  620  1  0.28880100  0.52352500  0.87215600  1
  C  623  1  0.35574600  0.50645500  0.87920200  1
  C  624  1  0.37785800  0.47426800  0.88476000  1
  C  625  1  0.41165600  0.47627500  0.90110100  1
  C  626  1  0.42334200  0.51222500  0.91094200  1
  C  627  1  0.40213800  0.54477000  0.90593900  1
  C  628  1  0.36884300  0.54108600  0.88991100  1
  C  641  1  0.12213400  0.54848300  0.57809700  1
  C  642  1  0.11346000  0.58612600  0.57534600  1
  C  643  1  0.11077500  0.60263200  0.54662900  1
  C  644  1  0.11520600  0.57879000  0.52141500  1
  C  645  1  0.12387600  0.54094400  0.52403300  1
  C  646  1  0.12669400  0.52481100  0.55258100  1
  C  651  1  0.13595500  0.48803900  0.55830800  1
  C  653  1  0.10053800  0.63972000  0.54066600  1
  C  655  1  0.60400900  0.05969400  0.33873600  1
  C  656  1  0.64165200  0.06836600  0.34148100  1
  C  657  1  0.65815000  0.07106700  0.37019700  1
  C  658  1  0.63431700  0.06662200  0.39541600  1
  C  659  1  0.59647600  0.05794200  0.39280000  1
  C  660  1  0.58033400  0.05514300  0.36425300  1
  C  665  1  0.54353500  0.04600900  0.35849000  1
  C  667  1  0.69526200  0.08118300  0.37617700  1
  C  669  1  0.62213300  0.07782300  0.07809160  1
  C  670  1  0.61346300  0.04017300  0.07534660  1
  C  671  1  0.61075000  0.02366700  0.04663260  1
  C  672  1  0.61521200  0.04750800  0.02141560  1
  C  673  1  0.62388000  0.08536000  0.02403260  1
  C  674  1  0.62668400  0.10150800  0.05257860  1
  C  679  1  0.63584900  0.13832300  0.05834860  1
  C  681  1  0.60067700  0.98651200  0.04067360  1
  C  683  1  0.10400100  0.56658800  0.83872100  1
  C  684  1  0.14165000  0.55791700  0.84147300  1
  C  685  1  0.15815900  0.55522400  0.87018600  1
  C  686  1  0.13431700  0.55965800  0.89540600  1
  C  687  1  0.09647110  0.56832300  0.89278400  1
  C  688  1  0.08032610  0.57113300  0.86423800  1
  C  693  1  0.04359910  0.58065300  0.85855300  1
  C  695  1  0.19532400  0.54521200  0.87616100  1
  C  697  1  0.22647600  0.44362400  0.69770800  1
  C  698  1  0.24314300  0.45589600  0.72461800  1
  C  699  1  0.27442100  0.43773800  0.73658900  1
  C  700  1  0.28722700  0.40663600  0.71958300  1
  C  701  1  0.27047200  0.39432300  0.69245600  1
  C  702  1  0.23902700  0.41246100  0.68053500  1
  C  707  1  0.21998400  0.40597800  0.65272500  1
  C  709  1  0.29275500  0.44684500  0.76420900  1
  C  711  1  0.01088710  0.68268000  0.69769500  1
  C  712  1  0.99422000  0.67040500  0.72461100  1
  C  713  1  0.96294000  0.68857100  0.73657100  1
  C  714  1  0.95013500  0.71967000  0.71957400  1
  C  715  1  0.96688800  0.73196700  0.69244500  1
  C  716  1  0.99838400  0.71387000  0.68053500  1
  C  721  1  0.01744210  0.72023100  0.65265900  1
  C  723  1  0.94456800  0.67956400  0.76416000  1
  C  725  1  0.49915300  0.95535800  0.21912000  1
  C  726  1  0.51142500  0.93868800  0.19221000  1
  C  727  1  0.49327000  0.90740800  0.18023900  1
  C  728  1  0.46216500  0.89460300  0.19724600  1
  C  729  1  0.44984900  0.91136200  0.22437000  1
  C  730  1  0.46797600  0.94281700  0.23628200  1
  C  735  1  0.46154300  0.96180700  0.26412300  1
  C  737  1  0.50233800  0.88908700  0.15260300  1
  C  739  1  0.73820900  0.17094500  0.21913400  1
  C  740  1  0.72593400  0.18761100  0.19221700  1
  C  741  1  0.74409500  0.21889100  0.18025700  1
  C  742  1  0.77519700  0.23169600  0.19725700  1
  C  743  1  0.78750200  0.21494000  0.22438100  1
  C  744  1  0.76936900  0.18347900  0.23631300  1
  C  749  1  0.77581800  0.16433300  0.26414100  1
  C  751  1  0.73509900  0.23726400  0.15266200  1
  C  753  1  0.30047400  0.20955800  0.45583400  1
  C  754  1  0.31697000  0.17884300  0.44095300  1
  C  755  1  0.30142300  0.14253500  0.44303800  1
  C  756  1  0.26874100  0.14067500  0.46099900  1
  C  757  1  0.25249400  0.17083100  0.47581600  1
  C  758  1  0.26869300  0.20634600  0.47468000  1
  C  763  1  0.25131700  0.23869100  0.48631500  1
  C  765  1  0.31543100  0.10926400  0.42897800  1
  C  767  1  0.93688000  0.91672900  0.45583200  1
  C  768  1  0.92027400  0.94732800  0.44092400  1
  C  769  1  0.93532800  0.98342200  0.44279000  1
  C  770  1  0.96844300  0.98555700  0.46093700  1
  C  771  1  0.98484600  0.95547400  0.47580000  1
  C  772  1  0.96866500  0.91995800  0.47468300  1
  C  777  1  0.98625400  0.88770700  0.48622800  1
  C  779  1  0.92362800  0.01821900  0.42971700  1
  C  781  1  0.26508300  0.88137400  0.46098800  1
  C  782  1  0.23443900  0.86482000  0.47588500  1
  C  783  1  0.19820300  0.88016300  0.47388100  1
  C  784  1  0.19621500  0.91301700  0.45585900  1
  C  785  1  0.22632200  0.92934800  0.44100700  1
  C  786  1  0.26182400  0.91314200  0.44214800  1
  C  791  1  0.29425500  0.93022800  0.43043200  1
  C  793  1  0.16457200  0.86670000  0.48770500  1
  C  795  1  0.97227700  0.24494100  0.46099500  1
  C  796  1  0.00299105  0.26144200  0.47586700  1
  C  797  1  0.03929010  0.24592500  0.47378000  1
  C  798  1  0.04117810  0.21322200  0.45581100  1
  C  799  1  0.01102810  0.19695800  0.44101200  1
  C  800  1  0.97552600  0.21316600  0.44216400  1
  C  805  1  0.94319700  0.19585900  0.43052200  1
  C  807  1  0.07256810  0.25989800  0.48784300  1
  C  809  1  0.80047300  0.41672900  0.95584100  1
  C  810  1  0.81705200  0.44733600  0.94092900  1
  C  811  1  0.80187300  0.48350200  0.94282200  1
  C  812  1  0.76890000  0.48558500  0.96095600  1
  C  813  1  0.75251300  0.45548300  0.97580700  1
  C  814  1  0.76869400  0.41995800  0.97468200  1
  C  819  1  0.75131300  0.38760900  0.98631500  1
  C  821  1  0.81523000  0.51716700  0.92894200  1
  C  823  1  0.43688000  0.70957200  0.95583200  1
  C  824  1  0.42027400  0.67897300  0.94092500  1
  C  825  1  0.43533900  0.64287600  0.94279100  1
  C  826  1  0.46844600  0.64074400  0.96093500  1
  C  827  1  0.48484600  0.67082700  0.97580000  1
  C  828  1  0.46866500  0.70634300  0.97468200  1
  C  833  1  0.48625700  0.73859500  0.98622700  1
  C  835  1  0.42360300  0.60809300  0.92971800  1
  C  837  1  0.76508200  0.74492800  0.96098700  1
  C  838  1  0.73444700  0.76148900  0.97588600  1
  C  839  1  0.69824400  0.74620500  0.97390700  1
  C  840  1  0.69621800  0.71329300  0.95586400  1
  C  841  1  0.72632300  0.69695300  0.94100800  1
  C  842  1  0.76182200  0.71315900  0.94214800  1
  C  847  1  0.79425700  0.69607000  0.93043200  1
  C  849  1  0.66445200  0.75941500  0.98762700  1
  C  851  1  0.47226300  0.38136500  0.96099200  1
  C  852  1  0.50287900  0.36478700  0.97588400  1
  C  853  1  0.53904500  0.37991300  0.97394700  1
  C  854  1  0.54113900  0.41296700  0.95588400  1
  C  855  1  0.51103900  0.42933400  0.94102400  1
  C  856  1  0.47552800  0.41313900  0.94216400  1
  C  861  1  0.44319900  0.43044400  0.93052300  1
  C  863  1  0.57253200  0.36611700  0.98789300  1
  N  23  1  0.99202900  0.21582400  0.04915700  1
  N  24  1  0.12296300  0.18989200  0.06063900  1
  N  25  1  0.03313400  0.40002300  0.09771100  1
  N  26  1  0.10809300  0.33327700  0.17609500  1
  N  49  1  0.02300800  0.79977100  0.04899000  1
  N  50  1  0.89214400  0.82517800  0.06065200  1
  N  51  1  0.98380300  0.61122500  0.10830200  1
  N  52  1  0.90725600  0.68186600  0.17603400  1
  N  75  1  0.21581300  0.02321700  0.96608300  1
  N  76  1  0.18975100  0.89239300  0.95465800  1
  N  77  1  0.40006200  0.98200900  0.91754400  1
  N  78  1  0.33325800  0.90716400  0.83914200  1
  N  101  1  0.79851000  0.99138800  0.96572700  1
  N  102  1  0.82533400  0.12298900  0.95463300  1
  N  103  1  0.61120300  0.03152700  0.90696600  1
  N  104  1  0.68184100  0.10801000  0.83921700  1
  N  127  1  0.49331200  0.30154800  0.54812800  1
  N  128  1  0.62294700  0.32535000  0.56063600  1
  N  129  1  0.53327000  0.11523700  0.59775200  1
  N  130  1  0.60251800  0.17477100  0.67899400  1
  N  153  1  0.52309200  0.71558900  0.54905500  1
  N  154  1  0.39214300  0.69006500  0.56065100  1
  N  155  1  0.48365200  0.90398800  0.60830900  1
  N  156  1  0.41285600  0.84076000  0.67894600  1
  N  179  1  0.71405400  0.49304000  0.46681000  1
  N  180  1  0.68975100  0.62283300  0.45466100  1
  N  181  1  0.89990400  0.53301500  0.41743700  1
  N  182  1  0.84047400  0.60251500  0.33624400  1
  N  205  1  0.29853800  0.52385000  0.46571700  1
  N  206  1  0.32533400  0.39225400  0.45463600  1
  N  207  1  0.11124200  0.48359700  0.40695100  1
  N  208  1  0.17448200  0.41286700  0.33629200  1
  N  455  1  0.10308700  0.27135300  0.49995000  1
  N  456  1  0.23402100  0.24542100  0.51143200  1
  N  457  1  0.14419200  0.45555200  0.54850400  1
  N  458  1  0.21915100  0.38880600  0.62688800  1
  N  481  1  0.13406600  0.85530000  0.49978300  1
  N  482  1  0.00320205  0.88070700  0.51144500  1
  N  483  1  0.09486110  0.66675400  0.55909500  1
  N  484  1  0.01831410  0.73739500  0.62682700  1
  N  507  1  0.32687100  0.07874600  0.41687600  1
  N  508  1  0.30080900  0.94792200  0.40545100  1
  N  509  1  0.51112000  0.03753800  0.36833700  1
  N  510  1  0.44431600  0.96269300  0.28993500  1
  N  533  1  0.90956800  0.04691700  0.41652000  1
  N  534  1  0.93639200  0.17851800  0.40542600  1
  N  535  1  0.72226100  0.08705600  0.35775900  1
  N  536  1  0.79289900  0.16353900  0.29001000  1
  N  559  1  0.60437000  0.35707700  0.99892100  1
  N  560  1  0.73400500  0.38087900  0.01142860  1
  N  561  1  0.64432800  0.17076600  0.04854460  1
  N  562  1  0.71357600  0.23030000  0.12978700  1
  N  585  1  0.63415000  0.77111800  0.99984800  1
  N  586  1  0.50320100  0.74559400  0.01144360  1
  N  587  1  0.59471000  0.95951700  0.05910160  1
  N  588  1  0.52391400  0.89628900  0.12973900  1
  N  611  1  0.82511200  0.54856900  0.91760300  1
  N  612  1  0.80080900  0.67836200  0.90545400  1
  N  613  1  0.01096210  0.58854400  0.86823000  1
  N  614  1  0.95153200  0.65804400  0.78703700  1
  N  637  1  0.40959600  0.57937900  0.91651000  1
  N  638  1  0.43639200  0.44778300  0.90542900  1
  N  639  1  0.22230000  0.53912600  0.85774400  1
  N  640  1  0.28554000  0.46839600  0.78708500  1
  O  8  1  0.07053700  0.39699900  0.15997100  1
  O  15  1  0.05220800  0.17092300  0.03974800  1
  O  17  1  0.02867000  0.34051500  0.06744700  1
  O  18  1  0.13140500  0.25785300  0.09025400  1
  O  34  1  0.94596500  0.61706900  0.15901100  1
  O  41  1  0.96303200  0.84430200  0.03975500  1
  O  43  1  0.98684800  0.67415600  0.06740500  1
  O  44  1  0.88384500  0.75738300  0.09025200  1
  O  60  1  0.39699700  0.94470700  0.85527200  1
  O  67  1  0.17092500  0.96303500  0.97549400  1
  O  69  1  0.34052100  0.98657600  0.94779900  1
  O  70  1  0.25785100  0.88383400  0.92498900  1
  O  86  1  0.61707200  0.06928200  0.85623000  1
  O  93  1  0.84431600  0.05220600  0.97549600  1
  O  95  1  0.67415600  0.02839600  0.94784000  1
  O  96  1  0.75738600  0.13140200  0.92498700  1
  O  112  1  0.57028600  0.11840800  0.66025000  1
  O  119  1  0.55223100  0.34428000  0.53977300  1
  O  121  1  0.52869500  0.17474500  0.56748800  1
  O  122  1  0.63140700  0.25740400  0.59025000  1
  O  138  1  0.44614000  0.89798000  0.65919900  1
  O  145  1  0.46303500  0.67093800  0.53975500  1
  O  147  1  0.48682000  0.84106800  0.56744500  1
  O  148  1  0.38384200  0.75784900  0.59024800  1
  O  164  1  0.89684700  0.57026900  0.35498600  1
  O  171  1  0.67097100  0.55223400  0.47546700  1
  O  173  1  0.84049600  0.52869200  0.44775200  1
  O  174  1  0.75783800  0.63141200  0.42499200  1
  O  190  1  0.11726300  0.44613700  0.35604300  1
  O  197  1  0.34431600  0.46303700  0.47549400  1
  O  199  1  0.17417500  0.48682000  0.44779800  1
  O  200  1  0.25739800  0.38383900  0.42499000  1
  O  440  1  0.18159500  0.45252800  0.61076400  1
  O  447  1  0.16326600  0.22645200  0.49054100  1
  O  449  1  0.13972800  0.39604400  0.51824000  1
  O  450  1  0.24246300  0.31338200  0.54104700  1
  O  466  1  0.05702310  0.67259800  0.60980400  1
  O  473  1  0.07409010  0.89983100  0.49054800  1
  O  475  1  0.09790610  0.72968500  0.51819800  1
  O  476  1  0.99490300  0.81291200  0.54104500  1
  O  492  1  0.50805500  0.00023603  0.30606500  1
  O  499  1  0.28198300  0.01856400  0.42628700  1
  O  501  1  0.45157900  0.04210500  0.39859200  1
  O  502  1  0.36890900  0.93936300  0.37578200  1
  O  518  1  0.72813000  0.12481100  0.30702300  1
  O  525  1  0.95537400  0.10773500  0.42628900  1
  O  527  1  0.78521400  0.08392500  0.39863300  1
  O  528  1  0.86844400  0.18693100  0.37578000  1
  O  544  1  0.68134400  0.17393700  0.11104300  1
  O  551  1  0.66328900  0.39980900  0.99056600  1
  O  553  1  0.63975300  0.23027400  0.01828060  1
  O  554  1  0.74246500  0.31293300  0.04104260  1
  O  570  1  0.55719800  0.95350900  0.10999200  1
  O  577  1  0.57409300  0.72646700  0.99054800  1
  O  579  1  0.59787800  0.89659700  0.01823760  1
  O  580  1  0.49490000  0.81337800  0.04104060  1
  O  596  1  0.00790505  0.62579800  0.80577900  1
  O  603  1  0.78202900  0.60776300  0.92626000  1
  O  605  1  0.95155400  0.58422100  0.89854500  1
  O  606  1  0.86889600  0.68694100  0.87578500  1
  O  622  1  0.22832100  0.50166600  0.80683600  1
  O  629  1  0.45537400  0.51856600  0.92628700  1
  O  631  1  0.28523300  0.54234900  0.89859100  1
  O  632  1  0.36845600  0.43936800  0.87578300  1
