# generated using pymatgen
data_H7(C7N2)2
_symmetry_space_group_name_H-M   'P 1'
_cell_length_a   31.75820000
_cell_length_b   31.75826578
_cell_length_c   31.75826578
_cell_angle_alpha   75.52254910
_cell_angle_beta   60.00006852
_cell_angle_gamma   60.00006852
_symmetry_Int_Tables_number   1
_chemical_formula_structural   H7(C7N2)2
_chemical_formula_sum   'H224 C448 N128'
_cell_volume   24023.22453639
_cell_formula_units_Z   32
loop_
 _symmetry_equiv_pos_site_id
 _symmetry_equiv_pos_as_xyz
  1  'x, y, z'
loop_
 _atom_site_type_symbol
 _atom_site_label
 _atom_site_symmetry_multiplicity
 _atom_site_fract_x
 _atom_site_fract_y
 _atom_site_fract_z
 _atom_site_occupancy
  C  1  1  0.93819550  0.08631100  0.01255400  1
  C  2  1  0.98418200  0.98470150  0.00121950  1
  C  3  1  0.92896800  0.01491450  0.00999650  1
  C  4  1  0.97579450  0.91268050  0.99718850  1
  C  5  1  0.00732050  0.93337150  0.99546850  1
  C  6  1  0.90685450  0.06552400  0.01545800  1
  C  8  1  0.48678450  0.49297600  0.48852700  1
  C  9  1  0.51423050  0.48393050  0.43742250  1
  C  10  1  0.48772100  0.47972450  0.41470850  1
  C  11  1  0.43271000  0.49765850  0.51658650  1
  C  12  1  0.40648350  0.50678050  0.56700750  1
  C  13  1  0.43259100  0.51092400  0.58959000  1
  C  16  1  0.04181950  0.40432650  0.48741650  1
  C  17  1  0.97477550  0.50592100  0.49879000  1
  C  18  1  0.95860500  0.47568050  0.48998150  1
  C  19  1  0.89028600  0.57789350  0.50286550  1
  C  20  1  0.94078800  0.55724350  0.50456450  1
  C  21  1  0.99260200  0.42507900  0.48450800  1
  C  23  1  0.47295800  0.99767100  0.01148900  1
  C  24  1  0.44030750  0.00665450  0.06260650  1
  C  25  1  0.38689700  0.01081050  0.08535750  1
  C  26  1  0.45158300  0.99301700  0.98345400  1
  C  27  1  0.48484350  0.98396250  0.93301650  1
  C  28  1  0.53766100  0.97985900  0.91039800  1
  C  31  1  0.20469850  0.96202100  0.53627700  1
  C  32  1  0.23339400  0.94578500  0.56425400  1
  C  35  1  0.71869750  0.03984500  0.45416800  1
  C  36  1  0.70141150  0.01698500  0.49959800  1
  C  39  1  0.70763000  0.52868050  0.96371950  1
  C  40  1  0.74805800  0.54493000  0.93576800  1
  C  43  1  0.21738950  0.45080800  0.04580000  1
  C  44  1  0.22257500  0.47383100  0.00045000  1
  C  47  1  0.01585300  0.00591350  0.99882150  1
  C  48  1  0.99271050  0.05724400  0.00457900  1
  C  49  1  0.02422000  0.07793250  0.00289750  1
  C  50  1  0.07867300  0.04719150  0.99416150  1
  C  51  1  0.10238100  0.99692550  0.98733450  1
  C  52  1  0.07106850  0.97570000  0.99003400  1
  C  53  1  0.09318150  0.92509100  0.98457400  1
  C  55  1  0.89766150  0.99369600  0.01266900  1
  C  56  1  0.92136200  0.94342250  0.00587050  1
  C  58  1  0.06183800  0.90430100  0.98749000  1
  C  66  1  0.02525200  0.48474650  0.50119650  1
  C  67  1  0.05924100  0.43342400  0.49542100  1
  C  68  1  0.10974500  0.41277150  0.49711850  1
  C  69  1  0.12467300  0.44353550  0.50588650  1
  C  70  1  0.09126300  0.49380350  0.51269550  1
  C  71  1  0.04142100  0.51498800  0.51000900  1
  C  73  1  0.00741750  0.56558850  0.51549150  1
  C  77  1  0.90876950  0.49686450  0.48728050  1
  C  78  1  0.87537100  0.54713500  0.49407100  1
  C  83  1  0.95820250  0.58634100  0.51257900  1
  C  92  1  0.02645450  0.99410400  0.48938600  1
  C  93  1  0.05467400  0.99980500  0.43805000  1
  C  94  1  0.10692150  0.99802100  0.41736400  1
  C  95  1  0.13059850  0.98934850  0.44811350  1
  C  96  1  0.10399600  0.98260100  0.49839100  1
  C  97  1  0.05144500  0.98532400  0.51961000  1
  C  98  1  0.02923650  0.00778400  0.40897200  1
  C  99  1  0.02291750  0.97991250  0.57022150  1
  C  101  1  0.97354400  0.99656050  0.51059450  1
  C  102  1  0.94855000  0.00534650  0.48037050  1
  C  103  1  0.89599200  0.00808700  0.50159000  1
  C  104  1  0.86939300  0.00133050  0.55186750  1
  C  105  1  0.89309150  0.99261500  0.58261100  1
  C  106  1  0.94532450  0.99085400  0.56193000  1
  C  107  1  0.97707850  0.01075550  0.42975850  1
  C  109  1  0.97076600  0.98287000  0.59100700  1
  C  118  1  0.51461500  0.49654650  0.01061250  1
  C  119  1  0.49725750  0.49078750  0.06193850  1
  C  120  1  0.52708700  0.49251250  0.08259850  1
  C  121  1  0.57277100  0.50128750  0.05185250  1
  C  122  1  0.58965550  0.50807450  0.00158050  1
  C  123  1  0.56102550  0.50536100  0.98037900  1
  C  124  1  0.45074500  0.48277550  0.09102750  1
  C  125  1  0.57765050  0.51081750  0.92977550  1
  C  127  1  0.48533900  0.49411750  0.98942150  1
  C  128  1  0.43892550  0.48530850  0.01965850  1
  C  129  1  0.41028550  0.48260850  0.99846250  1
  C  130  1  0.42717850  0.48937800  0.94818900  1
  C  131  1  0.47288550  0.49811850  0.91743150  1
  C  132  1  0.50270100  0.49986850  0.93809550  1
  C  133  1  0.42230350  0.47984500  0.07026300  1
  C  135  1  0.54921750  0.50787600  0.90900800  1
  C  144  1  0.43652150  0.48019100  0.44412600  1
  C  145  1  0.40764900  0.49006650  0.49445350  1
  C  146  1  0.56742750  0.47977800  0.41038300  1
  C  148  1  0.51323650  0.49771950  0.51144750  1
  C  149  1  0.56730750  0.49304400  0.48338600  1
  C  150  1  0.59236750  0.50065550  0.50550850  1
  C  151  1  0.56350050  0.51051100  0.55584000  1
  C  152  1  0.51229250  0.51099600  0.58526000  1
  C  153  1  0.48578700  0.50677200  0.56255100  1
  C  154  1  0.59354300  0.48390600  0.43296600  1
  C  165  1  0.36553950  0.01035650  0.05597350  1
  C  166  1  0.39680650  0.00058300  0.00562400  1
  C  168  1  0.46235100  0.01079050  0.08961950  1
  C  171  1  0.52705400  0.99297250  0.98852850  1
  C  172  1  0.54843150  0.99762000  0.01656500  1
  C  173  1  0.60321250  0.99004850  0.99440250  1
  C  174  1  0.63445850  0.98031100  0.94404800  1
  C  175  1  0.61311900  0.97982900  0.91466100  1
  C  176  1  0.55970700  0.98399150  0.93740950  1
  C  177  1  0.51517400  0.00667150  0.06700050  1
  C  188  1  0.47531450  0.00678600  0.49763000  1
  C  189  1  0.45166200  0.05788750  0.48856650  1
  C  190  1  0.40246100  0.08059050  0.48432250  1
  C  191  1  0.38065700  0.05117050  0.48484050  1
  C  192  1  0.40211850  0.00084500  0.49470800  1
  C  193  1  0.44930150  0.97872050  0.50231650  1
  C  194  1  0.47781500  0.08493050  0.48441650  1
  C  195  1  0.47349400  0.92830150  0.51144850  1
  C  197  1  0.52468100  0.98386850  0.50238150  1
  C  198  1  0.55069500  0.01193350  0.49769450  1
  C  199  1  0.59788000  0.98980900  0.50529900  1
  C  200  1  0.61934550  0.93948000  0.51516400  1
  C  201  1  0.59753900  0.91006250  0.51568150  1
  C  202  1  0.54833500  0.93276600  0.51144200  1
  C  203  1  0.52649850  0.06235300  0.48856800  1
  C  205  1  0.52218200  0.90572500  0.51559200  1
  C  214  1  0.98440850  0.48387450  0.00234850  1
  C  215  1  0.00285200  0.43275950  0.01136650  1
  C  216  1  0.97217150  0.41001900  0.01555200  1
  C  217  1  0.92147000  0.43940450  0.01502150  1
  C  218  1  0.90238600  0.48975350  0.00524950  1
  C  219  1  0.93500850  0.51191050  0.99767850  1
  C  220  1  0.05189750  0.40574700  0.01551800  1
  C  221  1  0.91785300  0.56234300  0.98859600  1
  C  223  1  0.01555600  0.50682700  0.99764200  1
  C  224  1  0.06495800  0.47878900  0.00231300  1
  C  225  1  0.09757900  0.50094850  0.99474250  1
  C  226  1  0.07849700  0.55129500  0.98496700  1
  C  227  1  0.02779700  0.58068000  0.98443400  1
  C  228  1  0.99711450  0.55794000  0.98862100  1
  C  229  1  0.08211150  0.42835750  0.01139550  1
  C  231  1  0.94807050  0.58495400  0.98446900  1
  C  433  1  0.24095550  0.95904800  0.96676000  1
  C  434  1  0.29764050  0.93110800  0.95046800  1
  C  435  1  0.32709050  0.94953400  0.95553700  1
  C  436  1  0.29893150  0.99492300  0.97847700  1
  C  441  1  0.20843950  0.94263950  0.96452950  1
  C  443  1  0.32142300  0.01396300  0.99261800  1
  C  445  1  0.17134450  0.53161550  0.53341350  1
  C  446  1  0.18382700  0.55956850  0.54965350  1
  C  447  1  0.23677050  0.54112800  0.54460200  1
  C  448  1  0.27693400  0.49576100  0.52161500  1
  C  453  1  0.12018700  0.54805150  0.53563250  1
  C  455  1  0.33260100  0.47670950  0.50751350  1
  C  457  1  0.28129700  0.95081300  0.54582800  1
  C  458  1  0.29859400  0.97366750  0.50039450  1
  C  461  1  0.15575100  0.95983050  0.55268950  1
  C  463  1  0.34017200  0.98775500  0.48132000  1
  C  467  1  0.78256850  0.53987250  0.95420350  1
  C  468  1  0.77738850  0.51685700  0.99955700  1
  C  473  1  0.67289250  0.53091450  0.94729750  1
  C  475  1  0.81401150  0.50275000  0.01859900  1
  C  477  1  0.75907050  0.03157900  0.03327500  1
  C  478  1  0.70238850  0.05953350  0.04955350  1
  C  479  1  0.67293150  0.04112200  0.04447300  1
  C  480  1  0.70109200  0.99574150  0.02152150  1
  C  485  1  0.79159517  0.04797050  0.03552050  1
  C  487  1  0.67859200  0.97670350  0.00738850  1
  C  489  1  0.82867800  0.45904700  0.46658800  1
  C  490  1  0.81618750  0.43109050  0.45036150  1
  C  491  1  0.76324800  0.44953900  0.45540000  1
  C  492  1  0.72309200  0.49491700  0.47836900  1
  C  497  1  0.87983267  0.44260500  0.46437500  1
  C  499  1  0.66742600  0.51398400  0.49245800  1
  C  501  1  0.79530650  0.02863350  0.46370150  1
  C  502  1  0.76660400  0.04487200  0.43573100  1
  C  505  1  0.84425550  0.03082450  0.44728250  1
  C  507  1  0.65983050  0.00289950  0.51867850  1
  C  509  1  0.29233250  0.46198050  0.03629650  1
  C  510  1  0.25190000  0.44573850  0.06424050  1
  C  517  1  0.32706800  0.45973500  0.05272800  1
  C  519  1  0.18595250  0.48794800  0.98140200  1
  C  609  1  0.00300600  0.79457450  0.97222550  1
  C  610  1  0.01617500  0.76758800  0.93450500  1
  C  611  1  0.01666100  0.72162650  0.94452150  1
  C  612  1  0.00300850  0.70325050  0.99247750  1
  C  617  1  0.99537400  0.84227550  0.96542550  1
  C  619  1  0.00751950  0.65664200  0.00533200  1
  C  621  1  0.77440450  0.69603150  0.52775250  1
  C  622  1  0.72285400  0.72298550  0.56547850  1
  C  623  1  0.68742750  0.76899550  0.55550550  1
  C  624  1  0.70343700  0.78748350  0.50759850  1
  C  629  1  0.80763950  0.64829200  0.53447700  1
  C  631  1  0.67417500  0.83412600  0.49482600  1
  C  633  1  0.80215150  0.96769900  0.70074900  1
  C  634  1  0.78833850  0.92997150  0.72771950  1
  C  635  1  0.74288550  0.93996900  0.77369500  1
  C  636  1  0.71088050  0.98791250  0.79210050  1
  C  641  1  0.84215000  0.96094150  0.65302750  1
  C  643  1  0.66877600  0.00076250  0.83871050  1
  C  645  1  0.47514300  0.52306800  0.79929400  1
  C  646  1  0.45050800  0.56079000  0.77236000  1
  C  647  1  0.46109300  0.55082300  0.72634700  1
  C  648  1  0.49562700  0.50292350  0.70783850  1
  C  653  1  0.46062550  0.52978650  0.84703950  1
  C  655  1  0.51300850  0.49016500  0.66119000  1
  C  657  1  0.99706800  0.19608450  0.02773250  1
  C  658  1  0.98390950  0.22306500  0.06545600  1
  C  659  1  0.98337750  0.26904300  0.05545000  1
  C  660  1  0.99696750  0.28744500  0.00750600  1
  C  665  1  0.00479050  0.14836100  0.03449900  1
  C  667  1  0.99244100  0.33405900  0.99465400  1
  C  669  1  0.22560900  0.29462700  0.47224300  1
  C  670  1  0.27716050  0.26766650  0.43451550  1
  C  671  1  0.31258150  0.22165350  0.44449150  1
  C  672  1  0.29656900  0.20317100  0.49240000  1
  C  677  1  0.19238350  0.34236800  0.46551400  1
  C  679  1  0.32582650  0.15652850  0.50517450  1
  C  681  1  0.19780250  0.02298700  0.29924500  1
  C  682  1  0.21159400  0.06071950  0.27225050  1
  C  683  1  0.25706900  0.05070600  0.22629000  1
  C  684  1  0.28914400  0.00274450  0.20792550  1
  C  689  1  0.15776200  0.02977350  0.34695150  1
  C  691  1  0.33122750  0.98989650  0.16131150  1
  C  693  1  0.52483300  0.46756800  0.20072100  1
  C  694  1  0.54943000  0.42984900  0.22768200  1
  C  695  1  0.53886900  0.43984350  0.27367450  1
  C  696  1  0.50439350  0.48776000  0.29214100  1
  C  701  1  0.53931800  0.46080450  0.15299650  1
  C  703  1  0.48703700  0.50054800  0.33877100  1
  C  801  1  0.71719555  0.28931000  0.24394100  1
  C  802  1  0.76318205  0.18770035  0.23260665  1
  C  803  1  0.70796805  0.21791335  0.24138365  1
  C  804  1  0.75479455  0.11567935  0.22857565  1
  C  805  1  0.78632055  0.13637035  0.22685565  1
  C  806  1  0.68585455  0.26852300  0.24684500  1
  C  808  1  0.26578455  0.69597485  0.71991415  1
  C  809  1  0.29323055  0.68692950  0.66880950  1
  C  810  1  0.26672105  0.68272350  0.64609550  1
  C  811  1  0.21171005  0.70065735  0.74797365  1
  C  812  1  0.18548355  0.70977935  0.79839465  1
  C  813  1  0.21159105  0.71392285  0.82097715  1
  C  816  1  0.82081955  0.60732535  0.71880365  1
  C  817  1  0.75377555  0.70891985  0.73017715  1
  C  818  1  0.73760505  0.67867935  0.72136865  1
  C  819  1  0.66928605  0.78089250  0.73425250  1
  C  820  1  0.71978805  0.76024250  0.73595150  1
  C  821  1  0.77160205  0.62807785  0.71589515  1
  C  823  1  0.25195805  0.20066985  0.24287615  1
  C  824  1  0.21930755  0.20965335  0.29399365  1
  C  825  1  0.16589705  0.21380935  0.31674465  1
  C  826  1  0.23058305  0.19601584  0.21484116  1
  C  827  1  0.26384355  0.18696150  0.16440350  1
  C  828  1  0.31666105  0.18285800  0.14178500  1
  C  831  1  0.98369850  0.16502005  0.76766405  1
  C  832  1  0.01239400  0.14878405  0.79564105  1
  C  835  1  0.49769750  0.24284405  0.68555505  1
  C  836  1  0.48041150  0.21998405  0.73098505  1
  C  839  1  0.48663000  0.73167955  0.19510655  1
  C  840  1  0.52705800  0.74792905  0.16715505  1
  C  843  1  0.99638950  0.65380705  0.27718705  1
  C  844  1  0.00157500  0.67683005  0.23183705  1
  C  847  1  0.79485300  0.20891235  0.23020865  1
  C  848  1  0.77171050  0.26024300  0.23596600  1
  C  849  1  0.80322000  0.28093150  0.23428450  1
  C  850  1  0.85767300  0.25019050  0.22554850  1
  C  851  1  0.88138100  0.19992433  0.21872166  1
  C  852  1  0.85006850  0.17869885  0.22142115  1
  C  853  1  0.87218150  0.12808985  0.21596115  1
  C  855  1  0.67666150  0.19669485  0.24405615  1
  C  856  1  0.70036200  0.14642135  0.23725765  1
  C  858  1  0.84083800  0.10729985  0.21887715  1
  C  866  1  0.80425200  0.68774535  0.73258365  1
  C  867  1  0.83824100  0.63642285  0.72680815  1
  C  868  1  0.88874500  0.61577035  0.72850565  1
  C  869  1  0.90367300  0.64653435  0.73727365  1
  C  870  1  0.87026300  0.69680235  0.74408265  1
  C  871  1  0.82042100  0.71798685  0.74139615  1
  C  873  1  0.78641750  0.76858750  0.74687850  1
  C  877  1  0.68776950  0.69986333  0.71866767  1
  C  878  1  0.65437100  0.75013400  0.72545800  1
  C  883  1  0.73720250  0.78934000  0.74396600  1
  C  892  1  0.80545445  0.19710305  0.72077305  1
  C  893  1  0.83367395  0.20280405  0.66943705  1
  C  894  1  0.88592145  0.20102005  0.64875105  1
  C  895  1  0.90959845  0.19234755  0.67950055  1
  C  896  1  0.88299595  0.18560005  0.72977805  1
  C  897  1  0.83044495  0.18832305  0.75099705  1
  C  898  1  0.80823645  0.21078305  0.64035905  1
  C  899  1  0.80191744  0.18291156  0.80160856  1
  C  901  1  0.75254395  0.19955955  0.74198155  1
  C  902  1  0.72754995  0.20834555  0.71175755  1
  C  903  1  0.67499195  0.21108605  0.73297705  1
  C  904  1  0.64839294  0.20432956  0.78325456  1
  C  905  1  0.67209150  0.19561400  0.81399800  1
  C  906  1  0.72432444  0.19385306  0.79331706  1
  C  907  1  0.75607845  0.21375455  0.66114555  1
  C  909  1  0.74976600  0.18586900  0.82239400  1
  C  918  1  0.29361495  0.69954555  0.24199955  1
  C  919  1  0.27625744  0.69378656  0.29332556  1
  C  920  1  0.30608700  0.69551150  0.31398550  1
  C  921  1  0.35177094  0.70428656  0.28323956  1
  C  922  1  0.36865545  0.71107355  0.23296755  1
  C  923  1  0.34002545  0.70836005  0.21176605  1
  C  924  1  0.22974500  0.68577450  0.32241450  1
  C  925  1  0.35665045  0.71381655  0.16116255  1
  C  927  1  0.26433895  0.69711655  0.22080855  1
  C  928  1  0.21792545  0.68830755  0.25104555  1
  C  929  1  0.18928545  0.68560755  0.22984955  1
  C  930  1  0.20617845  0.69237705  0.17957605  1
  C  931  1  0.25188545  0.70111755  0.14881855  1
  C  932  1  0.28170095  0.70286755  0.16948255  1
  C  933  1  0.20130344  0.68284406  0.30165006  1
  C  935  1  0.32821745  0.71087505  0.14039505  1
  C  944  1  0.21552150  0.68319000  0.67551300  1
  C  945  1  0.18664900  0.69306535  0.72584065  1
  C  946  1  0.34642750  0.68277700  0.64177000  1
  C  948  1  0.29223650  0.70071835  0.74283465  1
  C  949  1  0.34630750  0.69604283  0.71477316  1
  C  950  1  0.37136750  0.70365435  0.73689565  1
  C  951  1  0.34250050  0.71350985  0.78722715  1
  C  952  1  0.29129250  0.71399485  0.81664715  1
  C  953  1  0.26478700  0.70977085  0.79393815  1
  C  954  1  0.37254300  0.68690500  0.66435300  1
  C  965  1  0.14453950  0.21335535  0.28736065  1
  C  966  1  0.17580650  0.20358185  0.23701115  1
  C  968  1  0.24135100  0.21378935  0.32100665  1
  C  971  1  0.30605400  0.19597135  0.21991565  1
  C  972  1  0.32743150  0.20061885  0.24795215  1
  C  973  1  0.38221250  0.19304735  0.22578965  1
  C  974  1  0.41345850  0.18331000  0.17543500  1
  C  975  1  0.39211900  0.18282800  0.14604800  1
  C  976  1  0.33870700  0.18699050  0.16879650  1
  C  977  1  0.29417400  0.20967035  0.29838765  1
  C  988  1  0.25431445  0.20978505  0.72901705  1
  C  989  1  0.23066194  0.26088656  0.71995356  1
  C  990  1  0.18146094  0.28358956  0.71570956  1
  C  991  1  0.15965695  0.25416955  0.71622755  1
  C  992  1  0.18111845  0.20384405  0.72609505  1
  C  993  1  0.22830145  0.18171955  0.73370355  1
  C  994  1  0.25681500  0.28792950  0.71580350  1
  C  995  1  0.25249395  0.13130055  0.74283555  1
  C  997  1  0.30368095  0.18686755  0.73376855  1
  C  998  1  0.32969495  0.21493255  0.72908155  1
  C  999  1  0.37687995  0.19280805  0.73668605  1
  C  1000  1  0.39834545  0.14247905  0.74655105  1
  C  1001  1  0.37653895  0.11306155  0.74706855  1
  C  1002  1  0.32733495  0.13576505  0.74282905  1
  C  1003  1  0.30549844  0.26535206  0.71995506  1
  C  1005  1  0.30118195  0.10872405  0.74697905  1
  C  1014  1  0.76340845  0.68687355  0.23373555  1
  C  1015  1  0.78185195  0.63575855  0.24275355  1
  C  1016  1  0.75117145  0.61301805  0.24693905  1
  C  1017  1  0.70046995  0.64240355  0.24640855  1
  C  1018  1  0.68138595  0.69275255  0.23663655  1
  C  1019  1  0.71400845  0.71490955  0.22906555  1
  C  1020  1  0.83089745  0.60874605  0.24690505  1
  C  1021  1  0.69685294  0.76534206  0.21998306  1
  C  1023  1  0.79455595  0.70982605  0.22902905  1
  C  1024  1  0.84395795  0.68178805  0.23370005  1
  C  1025  1  0.87657895  0.70394755  0.22612955  1
  C  1026  1  0.85749695  0.75429405  0.21635405  1
  C  1027  1  0.80679694  0.78367906  0.21582106  1
  C  1028  1  0.77611444  0.76093906  0.22000806  1
  C  1029  1  0.86111145  0.63135655  0.24278255  1
  C  1031  1  0.72707050  0.78795300  0.21585600  1
  C  1233  1  0.01995550  0.16204685  0.19814715  1
  C  1234  1  0.07664050  0.13410685  0.18185515  1
  C  1235  1  0.10609050  0.15253285  0.18692415  1
  C  1236  1  0.07793150  0.19792183  0.20986417  1
  C  1241  1  0.98743950  0.14563835  0.19591665  1
  C  1243  1  0.10042300  0.21696183  0.22400517  1
  C  1245  1  0.95034450  0.73461435  0.76480065  1
  C  1246  1  0.96282700  0.76256733  0.78104067  1
  C  1247  1  0.01577050  0.74412685  0.77598915  1
  C  1248  1  0.05593400  0.69875985  0.75300215  1
  C  1253  1  0.89918700  0.75105033  0.76701967  1
  C  1255  1  0.11160100  0.67970835  0.73890065  1
  C  1257  1  0.06029695  0.15381205  0.77721505  1
  C  1258  1  0.07759395  0.17666655  0.73178155  1
  C  1261  1  0.93475100  0.16282955  0.78407655  1
  C  1263  1  0.11917195  0.19075405  0.71270705  1
  C  1267  1  0.56156845  0.74287155  0.18559055  1
  C  1268  1  0.55638845  0.71985605  0.23094405  1
  C  1273  1  0.45189250  0.73391355  0.17868455  1
  C  1275  1  0.59301145  0.70574905  0.24998605  1
  C  1277  1  0.53807050  0.23457785  0.26466215  1
  C  1278  1  0.48138850  0.26253233  0.28094067  1
  C  1279  1  0.45193150  0.24412085  0.27586015  1
  C  1280  1  0.48009200  0.19874035  0.25290865  1
  C  1285  1  0.57059250  0.25096933  0.26690767  1
  C  1287  1  0.45759200  0.17970235  0.23877565  1
  C  1289  1  0.60767800  0.66204585  0.69797515  1
  C  1290  1  0.59518750  0.63408935  0.68174865  1
  C  1291  1  0.54224800  0.65253785  0.68678715  1
  C  1292  1  0.50209200  0.69791583  0.70975616  1
  C  1297  1  0.65883300  0.64560385  0.69576215  1
  C  1299  1  0.44642600  0.71698283  0.72384517  1
  C  1301  1  0.57430645  0.23163255  0.69508855  1
  C  1302  1  0.54560395  0.24787105  0.66711805  1
  C  1305  1  0.62325545  0.23382355  0.67866955  1
  C  1307  1  0.43883050  0.20589855  0.75006555  1
  C  1309  1  0.07133245  0.66497955  0.26768355  1
  C  1310  1  0.03089995  0.64873755  0.29562755  1
  C  1317  1  0.10606795  0.66273405  0.28411505  1
  C  1319  1  0.96495250  0.69094705  0.21278905  1
  C  1409  1  0.78200600  0.99757350  0.20361250  1
  C  1410  1  0.79517500  0.97058685  0.16589215  1
  C  1411  1  0.79566100  0.92462550  0.17590850  1
  C  1412  1  0.78200850  0.90624950  0.22386450  1
  C  1417  1  0.77437400  0.04527435  0.19681265  1
  C  1419  1  0.78651950  0.85964100  0.23671900  1
  C  1421  1  0.55340450  0.89903050  0.75913950  1
  C  1422  1  0.50185400  0.92598450  0.79686550  1
  C  1423  1  0.46642750  0.97199450  0.78689250  1
  C  1424  1  0.48243700  0.99048250  0.73898550  1
  C  1429  1  0.58663950  0.85129100  0.76586400  1
  C  1431  1  0.45317500  0.03712500  0.72621300  1
  C  1433  1  0.58115150  0.17069800  0.93213600  1
  C  1434  1  0.56733850  0.13297050  0.95910650  1
  C  1435  1  0.52188550  0.14296800  0.00508200  1
  C  1436  1  0.48988050  0.19091150  0.02348750  1
  C  1441  1  0.62115000  0.16394050  0.88441450  1
  C  1443  1  0.44777600  0.20376150  0.07009750  1
  C  1445  1  0.25414300  0.72606700  0.03068100  1
  C  1446  1  0.22950800  0.76378900  0.00374700  1
  C  1447  1  0.24009300  0.75382200  0.95773400  1
  C  1448  1  0.27462700  0.70592250  0.93922550  1
  C  1453  1  0.23962545  0.73278555  0.07842655  1
  C  1455  1  0.29200850  0.69316385  0.89257715  1
  C  1457  1  0.77606800  0.39908350  0.25911950  1
  C  1458  1  0.76290950  0.42606400  0.29684300  1
  C  1459  1  0.76237750  0.47204200  0.28683700  1
  C  1460  1  0.77596750  0.49044400  0.23889300  1
  C  1465  1  0.78379050  0.35136000  0.26588600  1
  C  1467  1  0.77144100  0.53705800  0.22604100  1
  C  1469  1  0.00460900  0.49762600  0.70363000  1
  C  1470  1  0.05616050  0.47066535  0.66590265  1
  C  1471  1  0.09158150  0.42465250  0.67587850  1
  C  1472  1  0.07556900  0.40617000  0.72378700  1
  C  1477  1  0.97138350  0.54536685  0.69690115  1
  C  1479  1  0.10482650  0.35952750  0.73656150  1
  C  1481  1  0.97680250  0.22598600  0.53063200  1
  C  1482  1  0.99059400  0.26371850  0.50363750  1
  C  1483  1  0.03606900  0.25370500  0.45767700  1
  C  1484  1  0.06814400  0.20574350  0.43931250  1
  C  1489  1  0.93676195  0.23277255  0.57833855  1
  C  1491  1  0.11022755  0.19289535  0.39269865  1
  C  1493  1  0.30383300  0.67056700  0.43210800  1
  C  1494  1  0.32843000  0.63284800  0.45906900  1
  C  1495  1  0.31786900  0.64284250  0.50506150  1
  C  1496  1  0.28339350  0.69075900  0.52352800  1
  C  1501  1  0.31831800  0.66380350  0.38438350  1
  C  1503  1  0.26603705  0.70354700  0.57015800  1
  H  7  1  0.92031700  0.12312650  0.01693850  1
  H  14  1  0.41200950  0.51716950  0.62625850  1
  H  22  1  0.06517350  0.36751650  0.48301550  1
  H  29  1  0.55995150  0.97366650  0.87371850  1
  H  33  1  0.21965150  0.93070550  0.59786950  1
  H  38  1  0.69884950  0.05015200  0.43330800  1
  H  41  1  0.75284650  0.56003150  0.90216350  1
  H  46  1  0.18692800  0.44058400  0.06669700  1
  H  54  1  0.10234300  0.06216700  0.99073700  1
  H  57  1  0.89770200  0.92844100  0.00928300  1
  H  59  1  0.86752350  0.08810000  0.02142800  1
  H  60  1  0.07971750  0.86748850  0.98310150  1
  H  61  1  0.13251850  0.90251800  0.97858900  1
  H  74  1  0.15987950  0.42858300  0.50932900  1
  H  82  1  0.84014600  0.56208150  0.49065850  1
  H  84  1  0.98186150  0.40248550  0.47850350  1
  H  86  1  0.93484750  0.62314850  0.51698350  1
  H  87  1  0.01816150  0.58818150  0.52149250  1
  H  100  1  0.16924300  0.98593000  0.43313700  1
  H  108  1  0.83075300  0.00473900  0.56683800  1
  H  110  1  0.96032500  0.01673700  0.40717900  1
  H  111  1  0.04819300  0.01214000  0.37215400  1
  H  112  1  0.95181050  0.97851150  0.62782450  1
  H  113  1  0.03967200  0.97393150  0.59280150  1
  H  126  1  0.59305800  0.50467600  0.06680800  1
  H  134  1  0.40690450  0.48596800  0.93323300  1
  H  136  1  0.38896700  0.47384250  0.09284950  1
  H  137  1  0.43727850  0.47837750  0.12783750  1
  H  138  1  0.56268650  0.51227050  0.87219650  1
  H  139  1  0.61098400  0.51682600  0.90718800  1
  H  147  1  0.41800050  0.47706900  0.42718300  1
  H  155  1  0.58200750  0.51365550  0.57278450  1
  H  156  1  0.63188050  0.48113000  0.41162200  1
  H  157  1  0.58800450  0.47354150  0.37371250  1
  H  158  1  0.36813200  0.50958500  0.58835000  1
  H  170  1  0.32695250  0.01348300  0.07293100  1
  H  178  1  0.67305550  0.97717000  0.92708600  1
  H  180  1  0.52940700  0.00946850  0.08832250  1
  H  181  1  0.44006050  0.01698450  0.12629650  1
  H  183  1  0.47060450  0.98118150  0.91169450  1
  H  196  1  0.34522400  0.06811100  0.48166600  1
  H  204  1  0.65477950  0.92254200  0.51833500  1
  H  206  1  0.54350400  0.08369750  0.48576450  1
  H  207  1  0.46173150  0.12159700  0.47815900  1
  H  208  1  0.53826750  0.86905800  0.52184400  1
  H  209  1  0.45649600  0.90695650  0.51423950  1
  H  222  1  0.89981750  0.42244950  0.01819350  1
  H  230  1  0.10015000  0.56825050  0.98179450  1
  H  232  1  0.11765700  0.40703650  0.01420350  1
  H  233  1  0.06626300  0.36907450  0.02174250  1
  H  234  1  0.93370300  0.62162600  0.97824600  1
  H  235  1  0.88230650  0.58366600  0.98578900  1
  H  438  1  0.36780850  0.92869450  0.94519150  1
  H  439  1  0.31753350  0.89752500  0.93532200  1
  H  442  1  0.22464900  0.90827850  0.95280350  1
  H  444  1  0.29453700  0.04302550  0.01591550  1
  H  450  1  0.24632950  0.56203500  0.55482200  1
  H  451  1  0.15501900  0.59318250  0.56473550  1
  H  454  1  0.09035650  0.58244200  0.54730600  1
  H  456  1  0.35807300  0.44760650  0.48426850  1
  H  460  1  0.30113950  0.94050850  0.56669050  1
  H  462  1  0.13755050  0.94818150  0.58707750  1
  H  464  1  0.34240300  0.01099350  0.45221150  1
  H  470  1  0.81302500  0.55010300  0.93330200  1
  H  474  1  0.67742800  0.54260200  0.91291600  1
  H  476  1  0.81040400  0.47948050  0.04768250  1
  H  482  1  0.63221500  0.06197100  0.05481200  1
  H  483  1  0.68249950  0.09311450  0.06470350  1
  H  486  1  0.77539550  0.08234050  0.04721950  1
  H  488  1  0.70547250  0.94762850  0.98410650  1
  H  494  1  0.75368250  0.42863200  0.44519100  1
  H  495  1  0.84498950  0.39746850  0.43529350  1
  H  498  1  0.90965450  0.40821000  0.45271800  1
  H  500  1  0.64195800  0.54309700  0.51568900  1
  H  503  1  0.78034100  0.05995350  0.40211750  1
  H  506  1  0.86244600  0.04248450  0.41289750  1
  H  508  1  0.65760750  0.97965650  0.54778450  1
  H  515  1  0.24710750  0.43063050  0.09784450  1
  H  518  1  0.32251850  0.44805250  0.08711550  1
  H  520  1  0.18956250  0.51122300  0.95232200  1
  H  614  1  0.02732900  0.70191750  0.91680450  1
  H  615  1  0.02501250  0.78116100  0.89990100  1
  H  618  1  0.98549550  0.86116450  0.93885350  1
  H  620  1  0.01220500  0.64273850  0.03540350  1
  H  626  1  0.65065200  0.78867650  0.58322850  1
  H  627  1  0.71060600  0.70933500  0.60004400  1
  H  630  1  0.79008350  0.62940200  0.56105900  1
  H  632  1  0.69500500  0.84804800  0.46475100  1
  H  638  1  0.73383900  0.91224900  0.79339100  1
  H  639  1  0.81072650  0.89538250  0.71411950  1
  H  642  1  0.85123300  0.93433450  0.63413350  1
  H  644  1  0.65959750  0.03081050  0.85262250  1
  H  650  1  0.44397050  0.57854150  0.70668150  1
  H  651  1  0.42458050  0.59534650  0.78602750  1
  H  654  1  0.42417950  0.55634950  0.86595250  1
  H  656  1  0.54776800  0.46009650  0.64726550  1
  H  662  1  0.97272600  0.28874650  0.08316450  1
  H  663  1  0.97512550  0.20947000  0.10004800  1
  H  666  1  0.01461350  0.12949050  0.06110650  1
  H  668  1  0.98773850  0.34796450  0.96459050  1
  H  674  1  0.34935450  0.20197050  0.41676850  1
  H  675  1  0.28940900  0.28131550  0.39995050  1
  H  678  1  0.20994500  0.36125500  0.43893300  1
  H  680  1  0.30499550  0.14260950  0.53524950  1
  H  686  1  0.26609050  0.07843250  0.20657350  1
  H  687  1  0.18916650  0.09532600  0.28581900  1
  H  690  1  0.14868500  0.05637500  0.36584600  1
  H  692  1  0.34039800  0.95984950  0.14740250  1
  H  698  1  0.55596200  0.41212800  0.29336100  1
  H  699  1  0.57531100  0.39527750  0.21404750  1
  H  702  1  0.57575550  0.43422850  0.13408950  1
  H  704  1  0.45227750  0.53062200  0.35267600  1
  H  807  1  0.69931705  0.32612550  0.24832550  1
  H  814  1  0.19100955  0.72016835  0.85764565  1
  H  822  1  0.84417355  0.57051535  0.71440265  1
  H  829  1  0.33895155  0.17666550  0.10510550  1
  H  833  1  0.99865150  0.13370455  0.82925655  1
  H  838  1  0.47784950  0.25315105  0.66469505  1
  H  841  1  0.53184650  0.76303055  0.13355055  1
  H  846  1  0.96592800  0.64358305  0.29808405  1
  H  854  1  0.88134300  0.26516600  0.22212400  1
  H  857  1  0.67670200  0.13143985  0.24067015  1
  H  859  1  0.64652355  0.29109900  0.25281500  1
  H  860  1  0.85871750  0.07048735  0.21448865  1
  H  861  1  0.91151850  0.10551685  0.20997615  1
  H  874  1  0.93887950  0.63158185  0.74071615  1
  H  882  1  0.61914600  0.76508050  0.72204550  1
  H  884  1  0.76086155  0.60548435  0.70989065  1
  H  886  1  0.71384750  0.82614750  0.74837050  1
  H  887  1  0.79716150  0.79118050  0.75287950  1
  H  900  1  0.94824295  0.18892905  0.66452405  1
  H  908  1  0.60975300  0.20773800  0.79822500  1
  H  910  1  0.73932495  0.21973605  0.63856605  1
  H  911  1  0.82719295  0.21513905  0.60354105  1
  H  912  1  0.73081050  0.18151050  0.85921150  1
  H  913  1  0.81867200  0.17693050  0.82418850  1
  H  926  1  0.37205800  0.70767500  0.29819500  1
  H  934  1  0.18590445  0.68896705  0.16462005  1
  H  936  1  0.16796700  0.67684150  0.32423650  1
  H  937  1  0.21627850  0.68137650  0.35922450  1
  H  938  1  0.34168645  0.71526955  0.10358355  1
  H  939  1  0.38998395  0.71982505  0.13857505  1
  H  947  1  0.19700050  0.68006800  0.65857000  1
  H  955  1  0.36100750  0.71665435  0.80417165  1
  H  956  1  0.41088050  0.68412900  0.64300900  1
  H  957  1  0.36700450  0.67654050  0.60509950  1
  H  958  1  0.14713205  0.71258385  0.81973715  1
  H  970  1  0.10595250  0.21648185  0.30431815  1
  H  978  1  0.45205550  0.18016900  0.15847300  1
  H  980  1  0.30840700  0.21246735  0.31970965  1
  H  981  1  0.21906050  0.21998335  0.35768365  1
  H  983  1  0.24960455  0.18418050  0.14308150  1
  H  996  1  0.12422394  0.27111006  0.71305306  1
  H  1004  1  0.43377945  0.12554105  0.74972205  1
  H  1006  1  0.32250400  0.28669650  0.71715150  1
  H  1007  1  0.24073150  0.32459600  0.70954600  1
  H  1008  1  0.31726745  0.07205705  0.75323105  1
  H  1009  1  0.23549595  0.10995555  0.74562655  1
  H  1022  1  0.67881745  0.62544855  0.24958055  1
  H  1030  1  0.87914994  0.77124956  0.21318156  1
  H  1032  1  0.89665695  0.61003555  0.24559055  1
  H  1033  1  0.84526295  0.57207355  0.25312955  1
  H  1034  1  0.71270300  0.82462500  0.20963300  1
  H  1035  1  0.66130650  0.78666500  0.21717600  1
  H  1238  1  0.14680850  0.13169335  0.17657865  1
  H  1239  1  0.09653350  0.10052385  0.16670915  1
  H  1242  1  0.00364900  0.11127735  0.18419065  1
  H  1244  1  0.07353700  0.24602433  0.24730267  1
  H  1250  1  0.02532950  0.76503385  0.78620915  1
  H  1251  1  0.93401900  0.79618150  0.79612250  1
  H  1254  1  0.86935650  0.78544100  0.77869300  1
  H  1256  1  0.13707300  0.65060535  0.71565565  1
  H  1260  1  0.08013945  0.14350755  0.79807755  1
  H  1262  1  0.91655050  0.15118055  0.81846455  1
  H  1264  1  0.12140295  0.21399255  0.68359855  1
  H  1270  1  0.59202495  0.75310205  0.16468905  1
  H  1274  1  0.45642800  0.74560105  0.14430305  1
  H  1276  1  0.58940395  0.68247955  0.27906955  1
  H  1282  1  0.41121500  0.26496985  0.28619915  1
  H  1283  1  0.46149950  0.29611350  0.29609050  1
  H  1286  1  0.55439550  0.28533950  0.27860650  1
  H  1288  1  0.48447250  0.15062735  0.21549365  1
  H  1294  1  0.53268250  0.63163085  0.67657815  1
  H  1295  1  0.62398950  0.60046735  0.66668065  1
  H  1298  1  0.68865450  0.61120885  0.68410515  1
  H  1300  1  0.42095800  0.74609583  0.74707617  1
  H  1303  1  0.55934095  0.26295255  0.63350455  1
  H  1306  1  0.64144595  0.24548355  0.64428455  1
  H  1308  1  0.43660750  0.18265555  0.77917155  1
  H  1315  1  0.02610745  0.63362955  0.32923155  1
  H  1318  1  0.10151845  0.65105155  0.31850255  1
  H  1320  1  0.96856250  0.71422205  0.18370905  1
  H  1414  1  0.80632900  0.90491650  0.14819150  1
  H  1415  1  0.80401250  0.98415985  0.13128815  1
  H  1418  1  0.76449550  0.06416335  0.17024065  1
  H  1420  1  0.79120500  0.84573750  0.26679050  1
  H  1426  1  0.42965195  0.99167555  0.81461555  1
  H  1427  1  0.48960600  0.91233400  0.83143100  1
  H  1430  1  0.56908350  0.83240100  0.79244600  1
  H  1432  1  0.47400500  0.05104700  0.69613800  1
  H  1438  1  0.51283900  0.11524800  0.02477800  1
  H  1439  1  0.58972650  0.09838150  0.94550650  1
  H  1442  1  0.63023300  0.13733350  0.86552050  1
  H  1444  1  0.43859750  0.23380950  0.08400950  1
  H  1450  1  0.22297050  0.78154035  0.93806865  1
  H  1451  1  0.20358045  0.79834555  0.01741455  1
  H  1454  1  0.20317945  0.75934855  0.09733955  1
  H  1456  1  0.32676800  0.66309550  0.87865250  1
  H  1462  1  0.75172595  0.49174555  0.31455155  1
  H  1463  1  0.75412550  0.41246900  0.33143500  1
  H  1466  1  0.79361350  0.33248950  0.29249350  1
  H  1468  1  0.76673850  0.55096350  0.19597750  1
  H  1474  1  0.12835450  0.40496950  0.64815550  1
  H  1475  1  0.06840900  0.48431435  0.63133765  1
  H  1478  1  0.98894500  0.56425385  0.67032015  1
  H  1480  1  0.08399550  0.34560850  0.76663650  1
  H  1486  1  0.04509055  0.28143135  0.43796065  1
  H  1487  1  0.96816645  0.29832505  0.51720605  1
  H  1490  1  0.92768495  0.25937405  0.59723305  1
  H  1492  1  0.11939800  0.16284850  0.37878950  1
  H  1498  1  0.33496205  0.61512700  0.52474800  1
  H  1499  1  0.35431100  0.59827650  0.44543450  1
  H  1502  1  0.35475550  0.63722750  0.36547650  1
  H  1504  1  0.23127750  0.73362100  0.58406300  1
  N  15  1  0.50875550  0.47277200  0.36698000  1
  N  30  1  0.35329500  0.01772850  0.13309350  1
  N  34  1  0.22506150  0.98239900  0.49235200  1
  N  37  1  0.73142450  0.00237900  0.52410000  1
  N  42  1  0.70447500  0.50823450  0.00761750  1
  N  45  1  0.26251550  0.48839900  0.97594600  1
  N  62  1  0.15562750  0.97250200  0.97643400  1
  N  63  1  0.00772450  0.12575600  0.00385000  1
  N  64  1  0.99233700  0.86485650  0.99616250  1
  N  65  1  0.84441150  0.01810600  0.02359200  1
  N  88  1  0.10908050  0.51826200  0.52369200  1
  N  89  1  0.14205000  0.36495050  0.49614650  1
  N  90  1  0.85797250  0.62571400  0.50384100  1
  N  91  1  0.89094650  0.47240050  0.47629950  1
  N  114  1  0.13281050  0.97170750  0.52282050  1
  N  115  1  0.13821300  0.99903850  0.36954250  1
  N  116  1  0.86177500  0.99162500  0.63043600  1
  N  117  1  0.86719250  0.01896150  0.47715150  1
  N  140  1  0.63197250  0.51901100  0.97712700  1
  N  141  1  0.51159050  0.49150200  0.13041800  1
  N  142  1  0.48838750  0.49913650  0.86960850  1
  N  143  1  0.36798300  0.47164750  0.02291950  1
  N  159  1  0.35551350  0.49565350  0.51913150  1
  N  160  1  0.49126500  0.51793150  0.63299350  1
  N  161  1  0.64450900  0.49504300  0.48084000  1
  N  184  1  0.37490300  0.99503000  0.98096300  1
  N  186  1  0.64672050  0.97292250  0.86692450  1
  N  187  1  0.62510900  0.99562600  0.01905400  1
  N  210  1  0.37467000  0.97616050  0.50029350  1
  N  211  1  0.37575350  0.12832250  0.47739150  1
  N  212  1  0.62424850  0.86232900  0.52261300  1
  N  213  1  0.62532950  0.01449350  0.49971050  1
  N  236  1  0.85583200  0.51441000  0.99967500  1
  N  237  1  0.98629200  0.36228450  0.02247550  1
  N  238  1  0.01368050  0.62841450  0.97750450  1
  N  239  1  0.14412800  0.47629150  0.00032150  1
  N  437  1  0.24440350  0.01938950  0.99314050  1
  N  440  1  0.21736150  0.00292850  0.98723350  1
  N  449  1  0.26150000  0.47124900  0.50705400  1
  N  452  1  0.21207750  0.48770450  0.51299350  1
  N  459  1  0.26858650  0.98827300  0.47588600  1
  N  469  1  0.73745400  0.50228100  0.02406700  1
  N  481  1  0.75561500  0.97125250  0.00687850  1
  N  484  1  0.78265650  0.98769950  0.01280350  1
  N  493  1  0.73853200  0.51943200  0.49291800  1
  N  496  1  0.78795300  0.50296650  0.48698950  1
  N  504  1  0.77495250  0.00825300  0.50762700  1
  N  516  1  0.29549350  0.48243200  0.99240000  1
  N  613  1  0.99128950  0.73136700  0.02656700  1
  N  616  1  0.99055700  0.77426050  0.01735250  1
  N  625  1  0.75391950  0.75938300  0.47349500  1
  N  628  1  0.78682350  0.71643200  0.48266500  1
  N  637  1  0.72726550  0.02201250  0.76399550  1
  N  640  1  0.76940400  0.01281450  0.72108750  1
  N  649  1  0.51804150  0.46882600  0.73592000  1
  N  652  1  0.50799350  0.47799100  0.77887400  1
  N  661  1  0.00868700  0.25933100  0.97341200  1
  N  664  1  0.00946350  0.21642000  0.98261800  1
  N  673  1  0.24608900  0.23127750  0.52650150  1
  N  676  1  0.21319050  0.27422950  0.51733050  1
  N  685  1  0.27275050  0.96865200  0.23604500  1
  N  688  1  0.23058650  0.97785950  0.27893550  1
  N  697  1  0.48201100  0.52185200  0.26403600  1
  N  700  1  0.49203750  0.51266250  0.22110050  1
  N  815  1  0.28775555  0.67577100  0.59836700  1
  N  830  1  0.13229505  0.22072735  0.36448065  1
  N  834  1  0.00406150  0.18539805  0.72373905  1
  N  837  1  0.51042451  0.20537805  0.75548705  1
  N  842  1  0.48347500  0.71123355  0.23900455  1
  N  845  1  0.04151550  0.69139805  0.20733305  1
  N  862  1  0.93462750  0.17550085  0.20782115  1
  N  863  1  0.78672450  0.32875500  0.23523700  1
  N  864  1  0.77133705  0.06785535  0.22754965  1
  N  865  1  0.62341150  0.22110485  0.25497915  1
  N  888  1  0.88808050  0.72126085  0.75507915  1
  N  889  1  0.92105000  0.56794935  0.72753365  1
  N  890  1  0.63697255  0.82871300  0.73522800  1
  N  891  1  0.66994650  0.67539935  0.70768665  1
  N  914  1  0.91181045  0.17470655  0.75420755  1
  N  915  1  0.91721295  0.20203755  0.60092955  1
  N  916  1  0.64077500  0.19462400  0.86182300  1
  N  917  1  0.64619245  0.22196055  0.70853855  1
  N  940  1  0.41097245  0.72201005  0.20851405  1
  N  941  1  0.29059050  0.69450100  0.36180500  1
  N  942  1  0.26738745  0.70213555  0.10099555  1
  N  943  1  0.14698295  0.67464655  0.25430655  1
  N  959  1  0.13451350  0.69865235  0.75051865  1
  N  960  1  0.27026500  0.72093035  0.86438065  1
  N  961  1  0.42350900  0.69804183  0.71222717  1
  N  984  1  0.15390300  0.19802884  0.21235016  1
  N  986  1  0.42572050  0.17592150  0.09831150  1
  N  987  1  0.40410900  0.19862485  0.25044115  1
  N  1010  1  0.15366995  0.17915955  0.73168055  1
  N  1011  1  0.15475350  0.33132150  0.70877850  1
  N  1012  1  0.40324845  0.06532805  0.75400005  1
  N  1013  1  0.40432945  0.21749255  0.73109755  1
  N  1036  1  0.63483195  0.71740905  0.23106205  1
  N  1037  1  0.76529195  0.56528355  0.25386255  1
  N  1038  1  0.79268050  0.83141350  0.20889150  1
  N  1039  1  0.92312795  0.67929055  0.23170855  1
  N  1237  1  0.02340350  0.22238833  0.22452767  1
  N  1240  1  0.99636150  0.20592733  0.21862066  1
  N  1249  1  0.04050000  0.67424785  0.73844115  1
  N  1252  1  0.99107750  0.69070335  0.74438065  1
  N  1259  1  0.04758651  0.19127205  0.70727305  1
  N  1269  1  0.51645400  0.70528005  0.25545405  1
  N  1281  1  0.53461500  0.17425135  0.23826565  1
  N  1284  1  0.56165650  0.19069835  0.24419065  1
  N  1293  1  0.51753200  0.72243083  0.72430517  1
  N  1296  1  0.56695300  0.70596533  0.71837666  1
  N  1304  1  0.55395245  0.21125205  0.73901405  1
  N  1316  1  0.07449345  0.68543105  0.22378705  1
  N  1413  1  0.77028950  0.93436600  0.25795400  1
  N  1416  1  0.76955700  0.97725950  0.24873950  1
  N  1425  1  0.53291950  0.96238200  0.70488200  1
  N  1428  1  0.56582350  0.91943100  0.71405200  1
  N  1437  1  0.50626550  0.22501150  0.99538250  1
  N  1440  1  0.54840400  0.21581350  0.95247450  1
  N  1449  1  0.29704150  0.67182500  0.96730700  1
  N  1452  1  0.28699350  0.68099000  0.01026100  1
  N  1461  1  0.78768700  0.46233000  0.20479900  1
  N  1464  1  0.78846350  0.41941900  0.21400500  1
  N  1473  1  0.02508900  0.43427650  0.75788850  1
  N  1476  1  0.99219050  0.47722850  0.74871750  1
  N  1485  1  0.05175050  0.17165100  0.46743200  1
  N  1488  1  0.00958650  0.18085850  0.51032250  1
  N  1497  1  0.26101100  0.72485100  0.49542300  1
  N  1500  1  0.27103750  0.71566150  0.45248750  1
