# generated using pymatgen
data_H13C18N2O
_symmetry_space_group_name_H-M   'P 1'
_cell_length_a   41.09310000
_cell_length_b   41.09310000
_cell_length_c   55.58780000
_cell_angle_alpha   89.99970000
_cell_angle_beta   90.00000000
_cell_angle_gamma   90.00000000
_symmetry_Int_Tables_number   1
_chemical_formula_structural   H13C18N2O
_chemical_formula_sum   'H416 C576 N64 O32'
_cell_volume   93867.94199484
_cell_formula_units_Z   32
loop_
 _symmetry_equiv_pos_site_id
 _symmetry_equiv_pos_as_xyz
  1  'x, y, z'
loop_
 _atom_site_type_symbol
 _atom_site_label
 _atom_site_symmetry_multiplicity
 _atom_site_fract_x
 _atom_site_fract_y
 _atom_site_fract_z
 _atom_site_occupancy
  H  7  1  0.11648900  0.41029600  0.87416500  1
  H  8  1  0.13103300  0.42527300  0.80015200  1
  H  15  1  0.19253500  0.36564600  0.94996200  1
  H  16  1  0.17761100  0.34974800  0.87600200  1
  H  19  1  0.22339100  0.38339200  0.84232300  1
  H  20  1  0.15054500  0.45732800  0.90569300  1
  H  27  1  0.38607500  0.54985600  0.37417000  1
  H  28  1  0.37152000  0.53493000  0.30015400  1
  H  35  1  0.31003300  0.59454400  0.44995800  1
  H  36  1  0.32496500  0.61042800  0.37599300  1
  H  39  1  0.27918600  0.57682700  0.34232500  1
  H  40  1  0.35201300  0.50284100  0.40570100  1
  H  47  1  0.81627600  0.84223100  0.12275000  1
  H  48  1  0.80365300  0.86000300  0.04891300  1
  H  55  1  0.86532600  0.91620600  0.19976000  1
  H  56  1  0.88104600  0.90278800  0.12562300  1
  H  59  1  0.85170800  0.94803200  0.09230600  1
  H  60  1  0.77327100  0.87502900  0.15568500  1
  H  67  1  0.68627600  0.11798500  0.62277000  1
  H  68  1  0.69888600  0.10021300  0.54893300  1
  H  75  1  0.63720700  0.04399400  0.69976700  1
  H  76  1  0.62150600  0.05744000  0.62562600  1
  H  79  1  0.65082000  0.01220400  0.59231500  1
  H  80  1  0.72928800  0.08516300  0.65571000  1
  H  87  1  0.38163600  0.40716100  0.62590400  1
  H  88  1  0.36529500  0.42255000  0.69976000  1
  H  95  1  0.30710300  0.35928500  0.54999500  1
  H  96  1  0.32194000  0.34508000  0.62406100  1
  H  99  1  0.27446200  0.37846000  0.65545000  1
  H  100  1  0.34750400  0.45227400  0.59215900  1
  H  107  1  0.12090800  0.55299000  0.12590400  1
  H  108  1  0.13726200  0.53765100  0.19976100  1
  H  115  1  0.19542900  0.60090400  0.04999500  1
  H  116  1  0.18058700  0.61509800  0.12406700  1
  H  119  1  0.22807200  0.58175600  0.15543900  1
  H  120  1  0.15505700  0.50789000  0.09215700  1
  H  127  1  0.68315900  0.84680400  0.37736900  1
  H  128  1  0.69729200  0.86639100  0.45089400  1
  H  135  1  0.63082400  0.91906200  0.30033900  1
  H  136  1  0.61683100  0.90573800  0.37458600  1
  H  139  1  0.64585100  0.95246600  0.40521500  1
  H  140  1  0.72420900  0.87957100  0.34244000  1
  H  147  1  0.81940300  0.11342000  0.87735600  1
  H  148  1  0.80527900  0.09382500  0.95087800  1
  H  155  1  0.87174500  0.04113900  0.80033200  1
  H  156  1  0.88573000  0.05450100  0.87458000  1
  H  159  1  0.85673000  0.00777100  0.90520200  1
  H  160  1  0.77833800  0.08062100  0.84242000  1
  H  167  1  0.88892300  0.54484200  0.12971700  1
  H  168  1  0.87101000  0.53193900  0.20351400  1
  H  175  1  0.81401300  0.59408000  0.05277000  1
  H  176  1  0.82779900  0.61005800  0.12684300  1
  H  179  1  0.78335100  0.58106500  0.16035800  1
  H  180  1  0.85667500  0.50251400  0.09669700  1
  H  187  1  0.61362400  0.41538200  0.62971600  1
  H  188  1  0.63154400  0.42824200  0.70351200  1
  H  195  1  0.68852000  0.36612300  0.55277100  1
  H  196  1  0.67473400  0.35016400  0.62685000  1
  H  199  1  0.71917700  0.37911700  0.66035500  1
  H  200  1  0.64588000  0.45771500  0.59668500  1
  H  207  1  0.18271600  0.11704000  0.87923400  1
  H  208  1  0.19420500  0.09961400  0.95321500  1
  H  215  1  0.13759000  0.03928500  0.80165800  1
  H  216  1  0.11858100  0.05188800  0.87541200  1
  H  219  1  0.14671900  0.01106800  0.91013500  1
  H  220  1  0.22485500  0.08870600  0.84680100  1
  H  227  1  0.31985400  0.84314400  0.37922400  1
  H  228  1  0.30836600  0.86057000  0.45320000  1
  H  235  1  0.36497400  0.92093400  0.30165100  1
  H  236  1  0.38398400  0.90829800  0.37540600  1
  H  239  1  0.35586800  0.94910100  0.41013000  1
  H  240  1  0.27769600  0.87149900  0.34678700  1
  H  247  1  0.61802900  0.54768100  0.37521700  1
  H  248  1  0.63781800  0.53327700  0.30175000  1
  H  255  1  0.69103800  0.60035600  0.45219800  1
  H  256  1  0.67732800  0.61458000  0.37800900  1
  H  259  1  0.72336500  0.58600400  0.34724700  1
  H  260  1  0.65043800  0.50730400  0.41025900  1
  H  267  1  0.88453300  0.41254500  0.87521400  1
  H  268  1  0.86473400  0.42691300  0.80174400  1
  H  275  1  0.81154300  0.35985400  0.95219600  1
  H  276  1  0.82525100  0.34564600  0.87800600  1
  H  279  1  0.77921400  0.37418300  0.84725100  1
  H  280  1  0.85210900  0.45293100  0.91026100  1
  H  287  1  0.32260700  0.11260500  0.62554200  1
  H  288  1  0.30966800  0.09320700  0.55187700  1
  H  295  1  0.37143000  0.03783700  0.70339900  1
  H  296  1  0.38862300  0.04930800  0.62938600  1
  H  299  1  0.36074900  0.00678000  0.59705700  1
  H  300  1  0.28226400  0.08406000  0.66031000  1
  H  307  1  0.17993000  0.84757000  0.12555200  1
  H  308  1  0.19287100  0.86698200  0.05189100  1
  H  315  1  0.13111900  0.92238500  0.20341000  1
  H  316  1  0.11391700  0.91087200  0.12939700  1
  H  319  1  0.14176900  0.95338600  0.09707100  1
  H  320  1  0.22029200  0.87614600  0.16032300  1
  H  327  1  0.30424800  0.36430000  0.70586000  1
  H  334  1  0.22791400  0.45464200  0.81401000  1
  H  335  1  0.17076800  0.38495000  0.77812900  1
  H  336  1  0.29223900  0.46557900  0.69963000  1
  H  338  1  0.29706200  0.44549500  0.77881300  1
  H  339  1  0.27788400  0.47314000  0.79850300  1
  H  340  1  0.27488300  0.47916500  0.76721000  1
  H  342  1  0.27338200  0.35712500  0.76392800  1
  H  343  1  0.28133000  0.33423300  0.73775200  1
  H  344  1  0.24143600  0.34783400  0.74347800  1
  H  351  1  0.19832100  0.59592300  0.20584400  1
  H  358  1  0.27462300  0.50559400  0.31401500  1
  H  359  1  0.33179100  0.57526300  0.27813300  1
  H  360  1  0.21031100  0.49463900  0.19964100  1
  H  362  1  0.20547600  0.51476100  0.27881800  1
  H  363  1  0.22464300  0.48711600  0.29851200  1
  H  364  1  0.22764200  0.48108100  0.26722100  1
  H  366  1  0.22917900  0.60311600  0.26391200  1
  H  367  1  0.22124400  0.62600100  0.23772800  1
  H  368  1  0.26113200  0.61239100  0.24346300  1
  H  375  1  0.86888600  0.03053000  0.95383700  1
  H  382  1  0.78081700  0.95766900  0.06486000  1
  H  383  1  0.84619600  0.89788800  0.02695800  1
  H  384  1  0.76672800  0.02478200  0.95238200  1
  H  386  1  0.79181200  0.02702500  0.02995600  1
  H  387  1  0.76455400  0.00892000  0.05046500  1
  H  388  1  0.75651700  0.00646000  0.01940400  1
  H  390  1  0.87891200  0.99892200  0.01143100  1
  H  391  1  0.90010800  0.00567600  0.98430800  1
  H  392  1  0.88476000  0.96658600  0.99062400  1
  H  399  1  0.63367600  0.92969100  0.45385000  1
  H  406  1  0.72171700  0.00253400  0.56488700  1
  H  407  1  0.65636300  0.06232900  0.52697500  1
  H  408  1  0.73583400  0.93542400  0.45240900  1
  H  410  1  0.71072100  0.93318000  0.52998100  1
  H  411  1  0.73797300  0.95128000  0.55049500  1
  H  412  1  0.74602300  0.95373800  0.51943600  1
  H  414  1  0.62363500  0.96129900  0.51144100  1
  H  415  1  0.60244700  0.95454900  0.48431500  1
  H  416  1  0.61780000  0.99363800  0.49063300  1
  H  423  1  0.70101600  0.59769900  0.29887100  1
  H  430  1  0.77331700  0.51002600  0.18751100  1
  H  431  1  0.83347800  0.57489300  0.22556900  1
  H  432  1  0.70652000  0.49551700  0.30003300  1
  H  434  1  0.70407000  0.52113200  0.22252500  1
  H  435  1  0.72201200  0.49391600  0.20190800  1
  H  436  1  0.72450100  0.48568600  0.23294100  1
  H  438  1  0.73245400  0.60793000  0.24125600  1
  H  439  1  0.72586700  0.62901600  0.26844700  1
  H  440  1  0.76489300  0.61360200  0.26200400  1
  H  447  1  0.80152400  0.36248800  0.79888600  1
  H  454  1  0.72925400  0.45014600  0.68750300  1
  H  455  1  0.66906900  0.38530300  0.72556600  1
  H  456  1  0.79604400  0.46467300  0.80001700  1
  H  458  1  0.79849700  0.43902000  0.72251800  1
  H  459  1  0.78056700  0.46623400  0.70189700  1
  H  460  1  0.77807700  0.47447800  0.73292700  1
  H  462  1  0.77009100  0.35223600  0.74127200  1
  H  463  1  0.77666800  0.33116200  0.76847100  1
  H  464  1  0.73764700  0.34658600  0.76201800  1
  H  471  1  0.12886500  0.92937700  0.04860100  1
  H  478  1  0.21710800  0.00218900  0.93772700  1
  H  479  1  0.15097700  0.06186400  0.97500700  1
  H  480  1  0.23092000  0.93657300  0.05062700  1
  H  482  1  0.20629200  0.93307200  0.97294700  1
  H  483  1  0.23358000  0.95117000  0.95245700  1
  H  484  1  0.24135000  0.95400200  0.98353800  1
  H  486  1  0.11899100  0.96041700  0.99084500  1
  H  487  1  0.09761100  0.95370000  0.01789700  1
  H  488  1  0.11257000  0.99289900  0.01143500  1
  H  495  1  0.37367800  0.03082900  0.54858100  1
  H  502  1  0.28546200  0.95800200  0.43770800  1
  H  503  1  0.35158200  0.89832300  0.47499600  1
  H  504  1  0.27162500  0.02359700  0.55061400  1
  H  506  1  0.29627400  0.02711700  0.47292600  1
  H  507  1  0.26898700  0.00902100  0.45243600  1
  H  508  1  0.26121400  0.00618900  0.48351600  1
  H  510  1  0.38355600  0.99979000  0.49082500  1
  H  511  1  0.40493700  0.00651100  0.51787400  1
  H  512  1  0.38998800  0.96731000  0.51141300  1
  H  519  1  0.80547900  0.85926500  0.20670700  1
  H  526  1  0.72716100  0.95011100  0.31364100  1
  H  527  1  0.67116600  0.87873700  0.27859000  1
  H  528  1  0.79061000  0.95995300  0.19884200  1
  H  530  1  0.79634600  0.94155500  0.27843300  1
  H  531  1  0.77671200  0.96927000  0.29782100  1
  H  532  1  0.77354900  0.97456800  0.26646300  1
  H  534  1  0.77456300  0.85279300  0.26479200  1
  H  535  1  0.78308800  0.82943200  0.23894100  1
  H  536  1  0.74287900  0.84225200  0.24445300  1
  H  543  1  0.69706100  0.10092700  0.70672900  1
  H  550  1  0.77542200  0.01006800  0.81363500  1
  H  551  1  0.83139000  0.08145400  0.77857600  1
  H  552  1  0.71192500  0.00024100  0.69884200  1
  H  554  1  0.70622800  0.01860500  0.77843700  1
  H  555  1  0.72587600  0.99089100  0.79781900  1
  H  556  1  0.72903000  0.98559800  0.76646000  1
  H  558  1  0.72799800  0.10737800  0.76480800  1
  H  559  1  0.71945900  0.13074700  0.73896400  1
  H  560  1  0.75967000  0.11793000  0.74446200  1
  H  567  1  0.36698100  0.53415000  0.45665800  1
  H  574  1  0.27634600  0.45582200  0.56369700  1
  H  575  1  0.34703400  0.39961800  0.52807100  1
  H  576  1  0.26609600  0.52029100  0.44916700  1
  H  578  1  0.28507200  0.52519900  0.52874700  1
  H  579  1  0.25736000  0.50560200  0.54816000  1
  H  580  1  0.25180100  0.50274700  0.51681100  1
  H  582  1  0.37357100  0.50285000  0.51463600  1
  H  583  1  0.39682300  0.51137900  0.48873300  1
  H  584  1  0.38372900  0.47123400  0.49413400  1
  H  591  1  0.13559200  0.42600400  0.95667200  1
  H  598  1  0.22621800  0.50438400  0.06369100  1
  H  599  1  0.15549700  0.56055600  0.02807600  1
  H  600  1  0.23646200  0.43994100  0.94914900  1
  H  602  1  0.21751500  0.43500500  0.02874000  1
  H  603  1  0.24522600  0.45461400  0.04814700  1
  H  604  1  0.25077200  0.45747100  0.01679600  1
  H  606  1  0.12900800  0.45730100  0.01465200  1
  H  607  1  0.10574900  0.44875700  0.98875500  1
  H  608  1  0.11882100  0.48891200  0.99415200  1
  H  615  1  0.19989500  0.10231000  0.79806900  1
  H  622  1  0.27418500  0.01368800  0.68795300  1
  H  623  1  0.33309000  0.08058700  0.72514800  1
  H  624  1  0.20789600  0.00034700  0.80076900  1
  H  626  1  0.20480300  0.02416300  0.72289600  1
  H  627  1  0.22325800  0.99683600  0.70260900  1
  H  628  1  0.22593400  0.98936800  0.73373800  1
  H  630  1  0.23140200  0.11181700  0.74040200  1
  H  631  1  0.22424300  0.13341800  0.76729200  1
  H  632  1  0.26361600  0.11868400  0.76114200  1
  H  639  1  0.30266900  0.85789900  0.29805500  1
  H  646  1  0.22835000  0.94652700  0.18795700  1
  H  647  1  0.16946200  0.87962300  0.22516300  1
  H  648  1  0.29466800  0.95986000  0.30077100  1
  H  650  1  0.29773900  0.93606600  0.22289400  1
  H  651  1  0.27927600  0.96339200  0.20260900  1
  H  652  1  0.27660400  0.97085700  0.23374000  1
  H  654  1  0.27114500  0.84840600  0.24038900  1
  H  655  1  0.27831700  0.82679900  0.26727800  1
  H  656  1  0.23893900  0.84153100  0.26113500  1
  H  663  1  0.63061000  0.42626500  0.54611100  1
  H  670  1  0.72117200  0.50390900  0.43872200  1
  H  671  1  0.65036700  0.56029800  0.47405900  1
  H  672  1  0.73151500  0.44024500  0.55336800  1
  H  674  1  0.71248200  0.43475300  0.47395800  1
  H  675  1  0.74014400  0.45423400  0.45444500  1
  H  676  1  0.74571700  0.45737800  0.48577700  1
  H  678  1  0.62383700  0.45712900  0.48802400  1
  H  679  1  0.60065300  0.44879900  0.51399900  1
  H  680  1  0.61370400  0.48891100  0.50839600  1
  H  687  1  0.87192800  0.53395800  0.04611100  1
  H  694  1  0.78137700  0.45629100  0.93872800  1
  H  695  1  0.85220700  0.39992400  0.97405700  1
  H  696  1  0.77103200  0.51994100  0.05337900  1
  H  698  1  0.79004500  0.52544600  0.97396900  1
  H  699  1  0.76238900  0.50595700  0.95445600  1
  H  700  1  0.75682300  0.50280700  0.98578800  1
  H  702  1  0.87870500  0.50309900  0.98802400  1
  H  703  1  0.90188900  0.51143400  0.01399600  1
  H  704  1  0.88885300  0.47132000  0.00839400  1
  H  711  1  0.14346800  0.30849100  0.89747900  1
  H  718  1  0.23170400  0.15279700  0.89450400  1
  H  719  1  0.15630500  0.15362500  0.94577200  1
  H  720  1  0.23011800  0.31563300  0.93754400  1
  H  722  1  0.23970600  0.24254600  0.89116900  1
  H  723  1  0.23528600  0.20926600  0.87146800  1
  H  724  1  0.26563800  0.20864800  0.89417800  1
  H  726  1  0.14998600  0.22726300  0.88323200  1
  H  727  1  0.12048200  0.25810800  0.88662100  1
  H  728  1  0.12542600  0.22882500  0.90951300  1
  H  735  1  0.35909000  0.65170300  0.39746300  1
  H  742  1  0.27083600  0.80739100  0.39450200  1
  H  743  1  0.34626000  0.80656800  0.44575400  1
  H  744  1  0.27244700  0.64455500  0.43753700  1
  H  746  1  0.26283300  0.71764100  0.39117400  1
  H  747  1  0.26724200  0.75091900  0.37147000  1
  H  748  1  0.23690400  0.75154000  0.39419100  1
  H  750  1  0.35256100  0.73293100  0.38321500  1
  H  751  1  0.38206700  0.70208600  0.38659900  1
  H  752  1  0.37712700  0.73136800  0.40949300  1
  H  759  1  0.92316300  0.86905200  0.14653800  1
  H  766  1  0.07756300  0.95958100  0.14488900  1
  H  767  1  0.07756400  0.88346800  0.19557700  1
  H  768  1  0.91452600  0.95458500  0.18773700  1
  H  770  1  0.98771100  0.96629500  0.14134200  1
  H  771  1  0.02114600  0.96264300  0.12169300  1
  H  772  1  0.02121000  0.99267400  0.14463700  1
  H  774  1  0.00429200  0.87730900  0.13242900  1
  H  775  1  0.97396400  0.84719500  0.13542700  1
  H  776  1  0.00313800  0.85213200  0.15840000  1
  H  783  1  0.57936800  0.09114600  0.64653400  1
  H  790  1  0.42498100  0.00060100  0.64489200  1
  H  791  1  0.42496400  0.07673200  0.69556800  1
  H  792  1  0.58801600  0.00562300  0.68774300  1
  H  794  1  0.51483600  0.99388000  0.64136400  1
  H  795  1  0.48140700  0.99752300  0.62170700  1
  H  796  1  0.48133400  0.96750300  0.64466100  1
  H  798  1  0.49824000  0.08287600  0.63242700  1
  H  799  1  0.52856300  0.11299500  0.63542000  1
  H  800  1  0.49939300  0.10806100  0.65839400  1
  H  807  1  0.35769800  0.30445600  0.60281900  1
  H  814  1  0.27275400  0.14756600  0.61061800  1
  H  815  1  0.34620200  0.14766900  0.55781500  1
  H  816  1  0.27031100  0.30867600  0.56341500  1
  H  818  1  0.26300500  0.23729000  0.61188400  1
  H  819  1  0.26885300  0.20509100  0.63236200  1
  H  820  1  0.23772900  0.20272900  0.61029400  1
  H  822  1  0.35262400  0.22386500  0.61901400  1
  H  823  1  0.38167200  0.25489200  0.61454100  1
  H  824  1  0.37668400  0.22449900  0.59245900  1
  H  831  1  0.14484100  0.65573700  0.10282900  1
  H  838  1  0.22980800  0.81261700  0.11062000  1
  H  839  1  0.15633900  0.81252500  0.05782900  1
  H  840  1  0.23222200  0.65150800  0.06341700  1
  H  842  1  0.23955500  0.72289200  0.11187700  1
  H  843  1  0.23372000  0.75508700  0.13235900  1
  H  844  1  0.26483000  0.75745200  0.11028100  1
  H  846  1  0.14992900  0.73632500  0.11902400  1
  H  847  1  0.12087700  0.70530300  0.11455600  1
  H  848  1  0.12586300  0.73569500  0.09247300  1
  H  855  1  0.57533000  0.87036800  0.35397200  1
  H  862  1  0.41962500  0.95773700  0.36020900  1
  H  863  1  0.41896300  0.88340200  0.30809600  1
  H  864  1  0.58102000  0.95659900  0.31329400  1
  H  866  1  0.50949200  0.96606700  0.36177900  1
  H  867  1  0.47705300  0.96109300  0.38217900  1
  H  868  1  0.47535200  0.99186200  0.35980700  1
  H  870  1  0.49478400  0.87717400  0.36997700  1
  H  871  1  0.52533200  0.84750500  0.36595100  1
  H  872  1  0.49507400  0.85244200  0.34376100  1
  H  879  1  0.92724600  0.08984400  0.85396600  1
  H  886  1  0.08293600  0.00244800  0.86020100  1
  H  887  1  0.08361400  0.07680600  0.80810000  1
  H  888  1  0.92154400  0.00361700  0.81328600  1
  H  890  1  0.99306700  0.99411700  0.86175200  1
  H  891  1  0.02549900  0.99907900  0.88215900  1
  H  892  1  0.02720900  0.96832400  0.85977900  1
  H  894  1  0.00779300  0.08302600  0.86997000  1
  H  895  1  0.97724700  0.11269900  0.86594700  1
  H  896  1  0.00750500  0.10776000  0.84375500  1
  H  903  1  0.86061700  0.65280700  0.10576200  1
  H  910  1  0.76746000  0.80563600  0.10738300  1
  H  911  1  0.84331500  0.80673900  0.05649700  1
  H  912  1  0.77497700  0.64254800  0.06488500  1
  H  914  1  0.76227900  0.71569100  0.11111400  1
  H  915  1  0.76546700  0.74927100  0.13067300  1
  H  916  1  0.73529900  0.74871100  0.10782800  1
  H  918  1  0.85109200  0.73386900  0.11968800  1
  H  919  1  0.88168600  0.70403000  0.11666300  1
  H  920  1  0.87610800  0.73299400  0.09362600  1
  H  927  1  0.64193000  0.30740000  0.60577700  1
  H  934  1  0.73511400  0.15458300  0.60738900  1
  H  935  1  0.65922800  0.15345900  0.55652700  1
  H  936  1  0.72755500  0.31766000  0.56489000  1
  H  938  1  0.74028300  0.24452800  0.61111100  1
  H  939  1  0.73711900  0.21095200  0.63067300  1
  H  940  1  0.76726800  0.21151200  0.60781500  1
  H  942  1  0.65146200  0.22634200  0.61971000  1
  H  943  1  0.62086600  0.25618000  0.61668700  1
  H  944  1  0.62643900  0.22721200  0.59365200  1
  H  951  1  0.64282100  0.65671800  0.39877500  1
  H  958  1  0.73280200  0.81088000  0.39237900  1
  H  959  1  0.65884300  0.81274700  0.44476800  1
  H  960  1  0.72920300  0.64946600  0.43914300  1
  H  962  1  0.73957000  0.72088200  0.39072100  1
  H  963  1  0.73501900  0.75344500  0.37037600  1
  H  964  1  0.76598300  0.75455200  0.39262000  1
  H  966  1  0.65087100  0.73719700  0.38287900  1
  H  967  1  0.62071800  0.70714000  0.38697200  1
  H  968  1  0.62632700  0.73724300  0.40919200  1
  H  975  1  0.85975300  0.30349500  0.89876600  1
  H  982  1  0.76974000  0.14934200  0.89237700  1
  H  983  1  0.84372800  0.14745700  0.94474300  1
  H  984  1  0.77337800  0.31074600  0.93914100  1
  H  986  1  0.76298200  0.23934300  0.89072800  1
  H  987  1  0.76751100  0.20678100  0.87038000  1
  H  988  1  0.73656700  0.20567500  0.89263800  1
  H  990  1  0.85169100  0.22302000  0.88286500  1
  H  991  1  0.88184900  0.25307300  0.88695400  1
  H  992  1  0.87624200  0.22296800  0.90917400  1
  H  999  1  0.42347800  0.37400000  0.64758500  1
  H  1006  1  0.57769800  0.46469100  0.64482300  1
  H  1007  1  0.57776400  0.38953000  0.69628400  1
  H  1008  1  0.41462900  0.46075600  0.68733800  1
  H  1010  1  0.48785300  0.47136400  0.64127200  1
  H  1011  1  0.52129000  0.46734200  0.62167100  1
  H  1012  1  0.52133800  0.49782100  0.64429100  1
  H  1014  1  0.50470300  0.38177000  0.63363200  1
  H  1015  1  0.47430600  0.35179700  0.63698200  1
  H  1016  1  0.50332100  0.35733800  0.65998300  1
  H  1023  1  0.07908600  0.58618000  0.14758500  1
  H  1030  1  0.92484900  0.49554500  0.14480800  1
  H  1031  1  0.92480500  0.57066100  0.19629800  1
  H  1032  1  0.08792300  0.49942600  0.18734300  1
  H  1034  1  0.01469300  0.48884800  0.14125500  1
  H  1035  1  0.98126000  0.49289900  0.12165400  1
  H  1036  1  0.98119900  0.46239800  0.14425800  1
  H  1038  1  0.99785900  0.57842200  0.13363200  1
  H  1039  1  0.02826000  0.60839300  0.13698300  1
  H  1040  1  0.99924100  0.60285200  0.15998500  1
  H  1047  1  0.07528200  0.37531200  0.85280200  1
  H  1054  1  0.91977000  0.46266000  0.86047800  1
  H  1055  1  0.91888200  0.38948300  0.80747600  1
  H  1056  1  0.08105800  0.46274800  0.81356200  1
  H  1058  1  0.00963700  0.47100200  0.86190500  1
  H  1059  1  0.97727900  0.46556300  0.88230500  1
  H  1060  1  0.97549300  0.49683900  0.86032500  1
  H  1062  1  0.99470000  0.38159800  0.86880000  1
  H  1063  1  0.02528600  0.35208000  0.86434800  1
  H  1064  1  0.99508000  0.35763600  0.84219700  1
  H  1071  1  0.42726200  0.58486700  0.35280800  1
  H  1078  1  0.58278900  0.49757500  0.36049800  1
  H  1079  1  0.58366300  0.57071900  0.30747000  1
  H  1080  1  0.42150200  0.49743700  0.31355800  1
  H  1082  1  0.49292500  0.48921100  0.36192100  1
  H  1083  1  0.52527800  0.49467400  0.38232300  1
  H  1084  1  0.52707600  0.46338200  0.36035800  1
  H  1086  1  0.50784200  0.57859600  0.36880600  1
  H  1087  1  0.47725300  0.60810900  0.36435000  1
  H  1088  1  0.50746200  0.60255900  0.34220100  1
  C  1  1  0.16562200  0.40950100  0.86338600  1
  C  2  1  0.13184400  0.41282700  0.85973700  1
  C  3  1  0.11863800  0.41822500  0.83661700  1
  C  4  1  0.14033900  0.42146600  0.81701600  1
  C  5  1  0.17446400  0.41829800  0.82001300  1
  C  6  1  0.18684700  0.41146000  0.84337800  1
  C  9  1  0.17646800  0.39905600  0.88637100  1
  C  10  1  0.17832800  0.42059700  0.90620100  1
  C  11  1  0.18552900  0.40843900  0.92947200  1
  C  12  1  0.18909500  0.37451400  0.93291900  1
  C  13  1  0.18593600  0.35249100  0.91349900  1
  C  14  1  0.18017700  0.36533500  0.89028500  1
  C  21  1  0.33693300  0.55063300  0.36339400  1
  C  22  1  0.37071400  0.54730600  0.35974600  1
  C  23  1  0.38391600  0.54194500  0.33662100  1
  C  24  1  0.36221700  0.53873500  0.31701600  1
  C  25  1  0.32809200  0.54191400  0.32001600  1
  C  26  1  0.31571000  0.54873200  0.34338300  1
  C  29  1  0.32614000  0.56113000  0.38638200  1
  C  30  1  0.32424200  0.53958200  0.40620600  1
  C  31  1  0.31704400  0.55175400  0.42947400  1
  C  32  1  0.31344900  0.58567900  0.43291300  1
  C  33  1  0.31663200  0.60769500  0.41349400  1
  C  34  1  0.32240700  0.59484900  0.39028300  1
  C  41  1  0.82111600  0.89150200  0.11280600  1
  C  42  1  0.81464600  0.85827200  0.10866000  1
  C  43  1  0.80842300  0.84629200  0.08529600  1
  C  44  1  0.80848400  0.86849100  0.06587100  1
  C  45  1  0.81413200  0.90217100  0.06944900  1
  C  46  1  0.82133300  0.91333300  0.09308600  1
  C  49  1  0.83178000  0.90102400  0.13607800  1
  C  50  1  0.81030200  0.90242500  0.15597600  1
  C  51  1  0.82252000  0.90919800  0.17930000  1
  C  52  1  0.85643100  0.91289900  0.18271100  1
  C  53  1  0.87840100  0.91028100  0.16321600  1
  C  54  1  0.86550300  0.90483500  0.13997600  1
  C  61  1  0.68147200  0.06870600  0.61282700  1
  C  62  1  0.68797200  0.10193400  0.60868900  1
  C  63  1  0.69416100  0.11391400  0.58531900  1
  C  64  1  0.69408300  0.09172000  0.56589400  1
  C  65  1  0.68842200  0.05804200  0.56947000  1
  C  66  1  0.68122200  0.04687900  0.59310700  1
  C  69  1  0.67076000  0.05922600  0.63609800  1
  C  70  1  0.69224500  0.05778200  0.65599300  1
  C  71  1  0.68001200  0.05100900  0.67931300  1
  C  72  1  0.64610100  0.04728600  0.68271600  1
  C  73  1  0.62413700  0.04993100  0.66322100  1
  C  74  1  0.63704100  0.05539700  0.63998400  1
  C  81  1  0.33233300  0.40521000  0.63622800  1
  C  82  1  0.36597600  0.40953900  0.64016200  1
  C  83  1  0.37865700  0.41578300  0.66335400  1
  C  84  1  0.35653400  0.41882200  0.68271800  1
  C  85  1  0.32269700  0.41452200  0.67926400  1
  C  86  1  0.31071600  0.40685400  0.65602500  1
  C  89  1  0.32206900  0.39420100  0.61323900  1
  C  90  1  0.31992200  0.41535500  0.59320200  1
  C  91  1  0.31335200  0.40284700  0.56983200  1
  C  92  1  0.31070400  0.36867100  0.56685600  1
  C  93  1  0.31414500  0.34705400  0.58649200  1
  C  94  1  0.31921700  0.36037500  0.60961800  1
  C  101  1  0.17021800  0.55493200  0.13622100  1
  C  102  1  0.13657400  0.55059800  0.14015600  1
  C  103  1  0.12389700  0.54439200  0.16335700  1
  C  104  1  0.14602300  0.54139400  0.18272400  1
  C  105  1  0.17985800  0.54568900  0.17926200  1
  C  106  1  0.19183400  0.55334200  0.15601900  1
  C  109  1  0.18042700  0.56599000  0.11323000  1
  C  110  1  0.18261700  0.54482300  0.09320000  1
  C  111  1  0.18918700  0.55733900  0.06983100  1
  C  112  1  0.19183800  0.59151500  0.06685900  1
  C  113  1  0.18838600  0.61313200  0.08649300  1
  C  114  1  0.18329800  0.59981300  0.10961700  1
  C  121  1  0.67716700  0.89612600  0.38691600  1
  C  122  1  0.68476700  0.86314500  0.39126800  1
  C  123  1  0.69215000  0.85178000  0.41463600  1
  C  124  1  0.69227000  0.87435300  0.43381800  1
  C  125  1  0.68507900  0.90758500  0.42990400  1
  C  126  1  0.67666600  0.91826800  0.40645800  1
  C  129  1  0.66591200  0.90506400  0.36366600  1
  C  130  1  0.68699400  0.90676100  0.34355200  1
  C  131  1  0.67441800  0.91289800  0.32013900  1
  C  132  1  0.64024900  0.91563100  0.31721000  1
  C  133  1  0.61868800  0.91270300  0.33692600  1
  C  134  1  0.63207700  0.90796700  0.36007200  1
  C  141  1  0.82536000  0.06408900  0.88689800  1
  C  142  1  0.81773100  0.09706700  0.89124200  1
  C  143  1  0.81038400  0.10843300  0.91461800  1
  C  144  1  0.81029200  0.08586200  0.93380000  1
  C  145  1  0.81748300  0.05263100  0.92988400  1
  C  146  1  0.82589300  0.04195100  0.90643800  1
  C  149  1  0.83665700  0.05519500  0.86364800  1
  C  150  1  0.81556800  0.05345000  0.84353800  1
  C  151  1  0.82815100  0.04730500  0.82012800  1
  C  152  1  0.86232000  0.04456800  0.81720300  1
  C  153  1  0.88388100  0.04751700  0.83691700  1
  C  154  1  0.87048900  0.05227500  0.86006100  1
  C  161  1  0.83971500  0.55019600  0.13968500  1
  C  162  1  0.87287400  0.54334800  0.14380800  1
  C  163  1  0.88478100  0.53683100  0.16715100  1
  C  164  1  0.86259000  0.53701600  0.18657500  1
  C  165  1  0.82898100  0.54305800  0.18301300  1
  C  166  1  0.81788200  0.55050500  0.15940600  1
  C  169  1  0.83019600  0.56081100  0.11639700  1
  C  170  1  0.82894700  0.53929900  0.09651200  1
  C  171  1  0.82183900  0.55141100  0.07321500  1
  C  172  1  0.81760700  0.58525600  0.06980800  1
  C  173  1  0.82007500  0.60727700  0.08928000  1
  C  174  1  0.82590500  0.59447900  0.11250100  1
  C  181  1  0.66284100  0.41005700  0.63967800  1
  C  182  1  0.62968500  0.41693400  0.64379600  1
  C  183  1  0.61777800  0.42340900  0.66714600  1
  C  184  1  0.63996700  0.42320000  0.68657200  1
  C  185  1  0.67357300  0.41714300  0.68301000  1
  C  186  1  0.68467000  0.40970600  0.65939800  1
  C  189  1  0.67231700  0.39940100  0.61638900  1
  C  190  1  0.67359500  0.42091600  0.59650500  1
  C  191  1  0.68069600  0.40879500  0.57321000  1
  C  192  1  0.68494700  0.37494900  0.56980800  1
  C  193  1  0.68246000  0.35293300  0.58928400  1
  C  194  1  0.67662000  0.36573600  0.61250100  1
  C  201  1  0.17725600  0.06786600  0.88928500  1
  C  202  1  0.18387900  0.10108400  0.89339700  1
  C  203  1  0.18990700  0.11316300  0.91676400  1
  C  204  1  0.18938700  0.09109700  0.93626100  1
  C  205  1  0.18353500  0.05745200  0.93274800  1
  C  206  1  0.17665500  0.04616300  0.90909300  1
  C  209  1  0.16786500  0.05796500  0.86576600  1
  C  210  1  0.18987100  0.05872400  0.84613500  1
  C  211  1  0.17894600  0.05096900  0.82262800  1
  C  212  1  0.14565700  0.04404900  0.81874800  1
  C  213  1  0.12323900  0.04376500  0.83802600  1
  C  214  1  0.13481500  0.05059500  0.86143000  1
  C  221  1  0.32528600  0.89232200  0.38927100  1
  C  222  1  0.31863300  0.85910700  0.39337800  1
  C  223  1  0.31263200  0.84702700  0.41674800  1
  C  224  1  0.31316000  0.86909200  0.43624500  1
  C  225  1  0.31902700  0.90273500  0.43273300  1
  C  226  1  0.32591100  0.91402200  0.40907900  1
  C  229  1  0.33471100  0.90219500  0.36575100  1
  C  230  1  0.31269500  0.90146800  0.34612500  1
  C  231  1  0.32362100  0.90922600  0.32261800  1
  C  232  1  0.35690900  0.91615700  0.31873900  1
  C  233  1  0.37932700  0.91642200  0.33801700  1
  C  234  1  0.36776000  0.90956900  0.36141900  1
  C  241  1  0.66726800  0.55426800  0.36564500  1
  C  242  1  0.63438200  0.54623300  0.36131800  1
  C  243  1  0.62311900  0.53853800  0.33797700  1
  C  244  1  0.64570000  0.53856000  0.31880400  1
  C  245  1  0.67883000  0.54622100  0.32269000  1
  C  246  1  0.68940800  0.55491100  0.34610500  1
  C  249  1  0.67617700  0.56549600  0.38891100  1
  C  250  1  0.67782400  0.54437100  0.40900500  1
  C  251  1  0.68423200  0.55686900  0.43239900  1
  C  252  1  0.68734700  0.59099600  0.43533800  1
  C  253  1  0.68452400  0.61260600  0.41564500  1
  C  254  1  0.67944800  0.59929700  0.39251200  1
  C  261  1  0.83528600  0.40598200  0.86564900  1
  C  262  1  0.86816800  0.41404900  0.86132600  1
  C  263  1  0.87943000  0.42170000  0.83797700  1
  C  264  1  0.85685200  0.42164400  0.81880000  1
  C  265  1  0.82372200  0.41398100  0.82269000  1
  C  266  1  0.81314900  0.40530100  0.84610800  1
  C  269  1  0.82641900  0.39471900  0.88891600  1
  C  270  1  0.82474200  0.41584900  0.90900700  1
  C  271  1  0.81834000  0.40334600  0.93240100  1
  C  272  1  0.81522200  0.36921600  0.93533700  1
  C  273  1  0.81805500  0.34760900  0.91564300  1
  C  274  1  0.82314100  0.36092000  0.89251100  1
  C  281  1  0.32935700  0.06339300  0.61593400  1
  C  282  1  0.32151900  0.09633100  0.61157800  1
  C  283  1  0.31430800  0.10773800  0.58819000  1
  C  284  1  0.31472000  0.08526300  0.56895400  1
  C  285  1  0.32219800  0.05209900  0.57284200  1
  C  286  1  0.33029900  0.04134900  0.59633100  1
  C  289  1  0.33939300  0.05414800  0.63945500  1
  C  290  1  0.31770600  0.05453200  0.65927800  1
  C  291  1  0.32909400  0.04784000  0.68293800  1
  C  292  1  0.36282000  0.04243500  0.68643800  1
  C  293  1  0.38486800  0.04214000  0.66692500  1
  C  294  1  0.37268800  0.04791700  0.64355300  1
  C  301  1  0.17320000  0.89679000  0.11595000  1
  C  302  1  0.18107200  0.86385700  0.11159800  1
  C  303  1  0.18825600  0.85245200  0.08820500  1
  C  304  1  0.18782800  0.87492500  0.06896900  1
  C  305  1  0.18034400  0.90808600  0.07286000  1
  C  306  1  0.17223900  0.91883200  0.09634700  1
  C  309  1  0.16313700  0.90600300  0.13947300  1
  C  310  1  0.18483400  0.90565500  0.15928900  1
  C  311  1  0.17344800  0.91235900  0.18294800  1
  C  312  1  0.13972200  0.91775900  0.18645100  1
  C  313  1  0.11767100  0.91804100  0.16693900  1
  C  314  1  0.12984300  0.91223700  0.14356800  1
  C  321  1  0.30163500  0.41473900  0.69944700  1
  C  322  1  0.28761500  0.44383400  0.70788200  1
  C  324  1  0.25991200  0.41575800  0.73977200  1
  C  325  1  0.27321600  0.38550000  0.73200600  1
  C  326  1  0.29412500  0.38565100  0.71173700  1
  C  328  1  0.23914200  0.41927700  0.76008000  1
  C  329  1  0.24568900  0.44018300  0.77992500  1
  C  330  1  0.22354400  0.43997800  0.79947000  1
  C  331  1  0.19559200  0.41989900  0.79962000  1
  C  332  1  0.19020400  0.40041700  0.77909400  1
  C  337  1  0.27549600  0.46064600  0.78125400  1
  C  341  1  0.26706400  0.35442200  0.74496000  1
  C  345  1  0.20092700  0.54548200  0.19944300  1
  C  346  1  0.21493900  0.51638700  0.20788700  1
  C  348  1  0.24264200  0.54447200  0.23977200  1
  C  349  1  0.22934500  0.57472800  0.23199700  1
  C  350  1  0.20844000  0.57457200  0.21172600  1
  C  352  1  0.26340700  0.54095800  0.26008400  1
  C  353  1  0.25685100  0.52005400  0.27993000  1
  C  354  1  0.27899800  0.52025600  0.29947600  1
  C  355  1  0.30696400  0.54031500  0.29962200  1
  C  356  1  0.31234900  0.55980000  0.27909700  1
  C  361  1  0.22703700  0.49960300  0.28126300  1
  C  365  1  0.23550200  0.60581000  0.24494400  1
  C  369  1  0.81795000  0.03093600  0.94971200  1
  C  370  1  0.78883300  0.01870800  0.95952500  1
  C  372  1  0.81781200  0.98894300  0.98992200  1
  C  373  1  0.84810100  0.00048000  0.98079300  1
  C  374  1  0.84751500  0.02151200  0.96058700  1
  C  376  1  0.81461100  0.96825000  0.01031600  1
  C  377  1  0.79490500  0.97544800  0.03071000  1
  C  378  1  0.79482500  0.95295500  0.05002800  1
  C  379  1  0.81349200  0.92405300  0.04947100  1
  C  380  1  0.83188700  0.91812700  0.02848700  1
  C  385  1  0.77588000  0.00612400  0.03281400  1
  C  389  1  0.87975100  0.99253700  0.99238000  1
  C  393  1  0.68461200  0.92927500  0.44973400  1
  C  394  1  0.71372600  0.94150000  0.45955000  1
  C  396  1  0.68474300  0.97127200  0.48994400  1
  C  397  1  0.65445300  0.95973700  0.48080900  1
  C  398  1  0.65504400  0.93870700  0.46060300  1
  C  400  1  0.68794100  0.99196100  0.51033700  1
  C  401  1  0.70763700  0.98475800  0.53073500  1
  C  402  1  0.70771800  0.00725100  0.55005200  1
  C  403  1  0.68906000  0.03615900  0.54949100  1
  C  404  1  0.67067000  0.04208700  0.52850600  1
  C  409  1  0.72665500  0.95407600  0.53284200  1
  C  413  1  0.62280300  0.96768500  0.49239000  1
  C  417  1  0.70051700  0.54674400  0.30286300  1
  C  418  1  0.71263300  0.51764400  0.29294600  1
  C  420  1  0.74237800  0.54670800  0.26259400  1
  C  421  1  0.73094500  0.57698300  0.27182000  1
  C  422  1  0.70998100  0.57634300  0.29205900  1
  C  424  1  0.76299500  0.54355700  0.24216500  1
  C  425  1  0.75565800  0.52400400  0.22172000  1
  C  426  1  0.77811600  0.52392800  0.20238300  1
  C  427  1  0.80710400  0.54245200  0.20298300  1
  C  428  1  0.81315900  0.56070300  0.22401300  1
  C  433  1  0.72489300  0.50512700  0.21959100  1
  C  437  1  0.73892200  0.60866700  0.26029500  1
  C  441  1  0.80203300  0.41344800  0.80286500  1
  C  442  1  0.78992400  0.44254300  0.79293700  1
  C  444  1  0.76017900  0.41347000  0.76259200  1
  C  445  1  0.77160200  0.38320000  0.77182800  1
  C  446  1  0.79256400  0.38384500  0.79206800  1
  C  448  1  0.73956500  0.41661900  0.74215900  1
  C  449  1  0.74690900  0.43616800  0.72171200  1
  C  450  1  0.72445000  0.43624800  0.70237500  1
  C  451  1  0.69545300  0.41773900  0.70298000  1
  C  452  1  0.68939600  0.39948500  0.72400800  1
  C  457  1  0.77767800  0.45503200  0.71958200  1
  C  461  1  0.76362000  0.35151100  0.76031100  1
  C  465  1  0.17975800  0.92973000  0.05301600  1
  C  466  1  0.20880800  0.94231100  0.04334200  1
  C  468  1  0.17974500  0.97139400  0.01264700  1
  C  469  1  0.14951400  0.95953600  0.02165400  1
  C  470  1  0.15017600  0.93865600  0.04194200  1
  C  472  1  0.18290100  0.99188200  0.99215100  1
  C  473  1  0.20282600  0.98461600  0.97189000  1
  C  474  1  0.20291900  0.00692500  0.95246100  1
  C  475  1  0.18404300  0.03569400  0.95279200  1
  C  476  1  0.16541200  0.04169100  0.97364900  1
  C  481  1  0.22209200  0.95406100  0.97004200  1
  C  485  1  0.11789000  0.96699000  0.00985400  1
  C  489  1  0.32278400  0.03046100  0.55299500  1
  C  490  1  0.29373800  0.01786800  0.54332800  1
  C  492  1  0.32280900  0.98879300  0.51263000  1
  C  493  1  0.35303500  0.00066300  0.52163400  1
  C  494  1  0.35236800  0.02154300  0.54192300  1
  C  496  1  0.31965700  0.96830500  0.49213500  1
  C  497  1  0.29973900  0.97557400  0.47187000  1
  C  498  1  0.29964900  0.95326400  0.45244300  1
  C  499  1  0.31851800  0.92449300  0.45277700  1
  C  500  1  0.33714900  0.91849600  0.47363500  1
  C  505  1  0.28047300  0.00613000  0.47002000  1
  C  509  1  0.38466100  0.99321700  0.50983300  1
  C  513  1  0.80151700  0.90942100  0.19952000  1
  C  514  1  0.78659000  0.93833400  0.20744100  1
  C  516  1  0.75966100  0.91043600  0.23977200  1
  C  517  1  0.77379700  0.88034100  0.23248300  1
  C  518  1  0.79478800  0.88049700  0.21226100  1
  C  520  1  0.73884400  0.91396700  0.26005200  1
  C  521  1  0.74507900  0.93535000  0.27966900  1
  C  522  1  0.72300700  0.93510100  0.29926200  1
  C  523  1  0.69543100  0.91451200  0.29967500  1
  C  524  1  0.69032500  0.89456900  0.27935400  1
  C  529  1  0.77451500  0.95637000  0.28072300  1
  C  533  1  0.76834800  0.84946500  0.24586200  1
  C  537  1  0.70101800  0.05077100  0.69953300  1
  C  538  1  0.71594800  0.02185700  0.70744500  1
  C  540  1  0.74289100  0.04974500  0.73977400  1
  C  541  1  0.72875000  0.07984200  0.73249300  1
  C  542  1  0.70775200  0.07969200  0.71227700  1
  C  544  1  0.76371700  0.04621100  0.76004600  1
  C  545  1  0.75749500  0.02482200  0.77966400  1
  C  546  1  0.77956900  0.02507700  0.79925500  1
  C  547  1  0.80713600  0.04567900  0.79966600  1
  C  548  1  0.81223900  0.06561800  0.77934200  1
  C  553  1  0.72806200  0.00379600  0.78072200  1
  C  557  1  0.73420400  0.11071500  0.74587600  1
  C  561  1  0.31673000  0.53071100  0.44967100  1
  C  562  1  0.28773500  0.51603200  0.45767600  1
  C  564  1  0.31563200  0.48862100  0.48978600  1
  C  565  1  0.34580000  0.50253600  0.48242600  1
  C  566  1  0.34568600  0.52363700  0.46226900  1
  C  568  1  0.31208400  0.46765400  0.50997900  1
  C  569  1  0.29090500  0.47387900  0.52971900  1
  C  570  1  0.29117500  0.45165800  0.54921800  1
  C  571  1  0.31158000  0.42394100  0.54942100  1
  C  572  1  0.33131100  0.41885300  0.52898300  1
  C  577  1  0.27011400  0.50346000  0.53100000  1
  C  581  1  0.37672500  0.49674400  0.49566800  1
  C  585  1  0.18583600  0.42947700  0.94967100  1
  C  586  1  0.21482400  0.44418000  0.95766300  1
  C  588  1  0.18692600  0.47157100  0.98978400  1
  C  589  1  0.15676400  0.45763200  0.98243500  1
  C  590  1  0.15688100  0.43653100  0.96227800  1
  C  592  1  0.19047000  0.49253800  0.00997600  1
  C  593  1  0.21165700  0.48632200  0.02971400  1
  C  594  1  0.21138300  0.50854000  0.04921300  1
  C  595  1  0.19096100  0.53624500  0.04942100  1
  C  596  1  0.17122800  0.54132900  0.02898500  1
  C  601  1  0.23246300  0.45675000  0.03098900  1
  C  605  1  0.12584300  0.46340400  0.99568400  1
  C  609  1  0.20056600  0.05147000  0.80277000  1
  C  610  1  0.21348800  0.02241600  0.79335200  1
  C  612  1  0.24260600  0.05136500  0.76260600  1
  C  613  1  0.23041900  0.08159800  0.77137100  1
  C  614  1  0.20935600  0.08099500  0.79155700  1
  C  616  1  0.26330000  0.04816200  0.74222200  1
  C  617  1  0.25632300  0.02802700  0.72201800  1
  C  618  1  0.27873800  0.02799500  0.70265600  1
  C  619  1  0.30733400  0.04713800  0.70298300  1
  C  620  1  0.31306700  0.06594100  0.72379600  1
  C  625  1  0.22593500  0.00850400  0.72014900  1
  C  629  1  0.23776500  0.11315700  0.75944000  1
  C  633  1  0.30200000  0.90873700  0.30276200  1
  C  634  1  0.28907500  0.93779300  0.29335200  1
  C  636  1  0.25994900  0.90885200  0.26260600  1
  C  637  1  0.27213800  0.87861800  0.27136400  1
  C  638  1  0.29320500  0.87921400  0.29154800  1
  C  640  1  0.23924900  0.91205900  0.24222800  1
  C  641  1  0.24621900  0.93219400  0.22202200  1
  C  642  1  0.22380000  0.93222100  0.20266000  1
  C  643  1  0.19521000  0.91307200  0.20299200  1
  C  644  1  0.18948000  0.89427300  0.22380600  1
  C  649  1  0.27660400  0.95172300  0.22014900  1
  C  653  1  0.26478900  0.84706000  0.25942900  1
  C  657  1  0.68087600  0.42981500  0.55300400  1
  C  658  1  0.70983700  0.44445000  0.54489700  1
  C  660  1  0.68182300  0.47161300  0.51273300  1
  C  661  1  0.65168400  0.45773700  0.52019700  1
  C  662  1  0.65187100  0.43678200  0.54043700  1
  C  664  1  0.68532200  0.49240000  0.49243700  1
  C  665  1  0.70654200  0.48605200  0.47274200  1
  C  666  1  0.70628400  0.50813300  0.45315900  1
  C  667  1  0.68585000  0.53582400  0.45283500  1
  C  668  1  0.66607300  0.54104100  0.47322800  1
  C  673  1  0.72739500  0.45650200  0.47159800  1
  C  677  1  0.62072500  0.46339100  0.50696900  1
  C  681  1  0.82166600  0.53039000  0.05301000  1
  C  682  1  0.79270800  0.51574300  0.04490400  1
  C  684  1  0.82072700  0.48859300  0.01273700  1
  C  685  1  0.85086100  0.50248100  0.02019800  1
  C  686  1  0.85067100  0.52343600  0.04043900  1
  C  688  1  0.81723200  0.46780600  0.99244300  1
  C  689  1  0.79600700  0.47414800  0.97274800  1
  C  690  1  0.79627000  0.45207200  0.95316400  1
  C  691  1  0.81671900  0.42439100  0.95283500  1
  C  692  1  0.83649300  0.41917300  0.97322800  1
  C  697  1  0.77514300  0.50369100  0.97160900  1
  C  701  1  0.88182200  0.49683500  0.00696800  1
  C  705  1  0.18646600  0.31808800  0.91705900  1
  C  706  1  0.21157600  0.30253300  0.93003500  1
  C  708  1  0.19006000  0.24972900  0.92121500  1
  C  709  1  0.16354600  0.26364900  0.90843900  1
  C  710  1  0.16227900  0.29794600  0.90671200  1
  C  712  1  0.19549800  0.21581200  0.92202400  1
  C  713  1  0.21778000  0.19948300  0.90662300  1
  C  714  1  0.21665500  0.16507800  0.90607100  1
  C  715  1  0.19434500  0.14721200  0.92024000  1
  C  716  1  0.17374500  0.16500600  0.93571300  1
  C  721  1  0.24077300  0.21611000  0.89000800  1
  C  725  1  0.13841700  0.24344600  0.89624300  1
  C  729  1  0.31609700  0.64210000  0.41704800  1
  C  730  1  0.29098600  0.65765500  0.43002600  1
  C  732  1  0.31249800  0.71045900  0.42120600  1
  C  733  1  0.33900800  0.69654200  0.40842400  1
  C  734  1  0.34027900  0.66224500  0.40669700  1
  C  736  1  0.30705900  0.74437800  0.42201500  1
  C  737  1  0.28476800  0.76070400  0.40662000  1
  C  738  1  0.28589500  0.79510900  0.40606400  1
  C  739  1  0.30822200  0.81297300  0.42021800  1
  C  740  1  0.32881700  0.79518400  0.43569600  1
  C  745  1  0.26176700  0.74407600  0.39001200  1
  C  749  1  0.36413400  0.71674800  0.39622500  1
  C  753  1  0.91281000  0.91137800  0.16669500  1
  C  754  1  0.92794000  0.93646300  0.17997800  1
  C  756  1  0.98110700  0.91607500  0.17091500  1
  C  757  1  0.96764900  0.88965000  0.15777200  1
  C  758  1  0.93337600  0.88782700  0.15601000  1
  C  760  1  0.01493100  0.92202200  0.17189200  1
  C  761  1  0.03101700  0.94478300  0.15673700  1
  C  762  1  0.06543900  0.94419600  0.15630600  1
  C  763  1  0.08355800  0.92198300  0.17038300  1
  C  764  1  0.06597800  0.90088000  0.18561600  1
  C  769  1  0.01413400  0.96776500  0.14025500  1
  C  773  1  0.98830200  0.86516100  0.14528200  1
  C  777  1  0.58972700  0.04882700  0.66666667  1
  C  778  1  0.57460000  0.02374200  0.67998000  1
  C  780  1  0.52143100  0.04412300  0.67091700  1
  C  781  1  0.53488600  0.07054600  0.65777000  1
  C  782  1  0.56915700  0.07237200  0.65600700  1
  C  784  1  0.48760500  0.03817200  0.67189600  1
  C  785  1  0.47152500  0.01540500  0.65674300  1
  C  786  1  0.43710300  0.01599200  0.65630400  1
  C  787  1  0.41899000  0.03823100  0.67036100  1
  C  788  1  0.43655500  0.05932200  0.68561100  1
  C  793  1  0.48841100  0.99241000  0.64027400  1
  C  797  1  0.51422800  0.09502900  0.64527600  1
  C  801  1  0.31428600  0.31258400  0.58337800  1
  C  802  1  0.28919700  0.29615300  0.57099000  1
  C  804  1  0.31160500  0.24406400  0.58086700  1
  C  805  1  0.33814900  0.25888600  0.59303700  1
  C  806  1  0.33895200  0.29324700  0.59394500  1
  C  808  1  0.30668700  0.21005600  0.58091500  1
  C  809  1  0.28532000  0.19397900  0.59715100  1
  C  810  1  0.28715500  0.15963700  0.59849500  1
  C  811  1  0.30923900  0.14160400  0.58425400  1
  C  812  1  0.32893400  0.15913200  0.56798400  1
  C  817  1  0.26256200  0.21091000  0.61377100  1
  C  821  1  0.36375200  0.23957100  0.60548200  1
  C  825  1  0.18824500  0.64760500  0.08338100  1
  C  826  1  0.21333700  0.66403100  0.07099400  1
  C  828  1  0.19093900  0.71612500  0.08087200  1
  C  829  1  0.16439600  0.70130400  0.09304600  1
  C  830  1  0.16358700  0.66694300  0.09395200  1
  C  832  1  0.19585900  0.75013000  0.08092200  1
  C  833  1  0.21723300  0.76620600  0.09715300  1
  C  834  1  0.21539900  0.80054700  0.09850000  1
  C  835  1  0.19329700  0.81857700  0.08427400  1
  C  836  1  0.17360800  0.80105900  0.06799800  1
  C  841  1  0.24000000  0.74927100  0.11376500  1
  C  845  1  0.13879700  0.72062200  0.10549300  1
  C  849  1  0.58420000  0.91309500  0.33389300  1
  C  850  1  0.56818600  0.93813100  0.32114600  1
  C  852  1  0.51572900  0.91684000  0.33127200  1
  C  853  1  0.53009900  0.89040300  0.34386000  1
  C  854  1  0.56444500  0.88906200  0.34482600  1
  C  856  1  0.48180100  0.92227400  0.33113600  1
  C  857  1  0.46594000  0.94419000  0.34708000  1
  C  858  1  0.43156200  0.94294700  0.34827100  1
  C  859  1  0.41328400  0.92093300  0.33414000  1
  C  860  1  0.43062700  0.90065800  0.31815400  1
  C  865  1  0.48311000  0.96696300  0.36355500  1
  C  869  1  0.51033200  0.86544500  0.35662500  1
  C  873  1  0.91836900  0.04712300  0.83388400  1
  C  874  1  0.93437900  0.02208200  0.82113900  1
  C  876  1  0.98684200  0.04336700  0.83126200  1
  C  877  1  0.97247500  0.06980400  0.84385200  1
  C  878  1  0.93812900  0.07114900  0.84481800  1
  C  880  1  0.02076800  0.03792900  0.83112700  1
  C  881  1  0.03662500  0.01600400  0.84706900  1
  C  882  1  0.07100300  0.01724800  0.84826700  1
  C  883  1  0.08927600  0.03928700  0.83415400  1
  C  884  1  0.07194700  0.05955000  0.81815400  1
  C  889  1  0.01945000  0.99321900  0.86353100  1
  C  893  1  0.99224500  0.09475700  0.85662000  1
  C  897  1  0.81834400  0.64165500  0.08577800  1
  C  898  1  0.79291400  0.65630000  0.07255500  1
  C  900  1  0.81245500  0.70984100  0.08141600  1
  C  901  1  0.83919200  0.69689000  0.09449600  1
  C  902  1  0.84160600  0.66266100  0.09633800  1
  C  904  1  0.80590900  0.74355000  0.08037100  1
  C  905  1  0.78293900  0.75930000  0.09554600  1
  C  906  1  0.78293700  0.79373100  0.09591000  1
  C  907  1  0.80478000  0.81216700  0.08174700  1
  C  908  1  0.82610700  0.79489900  0.06648800  1
  C  913  1  0.76035400  0.74209000  0.11214300  1
  C  917  1  0.86341800  0.71801500  0.10683500  1
  C  921  1  0.68419300  0.31855500  0.58578500  1
  C  922  1  0.70962100  0.30390800  0.57256300  1
  C  924  1  0.69008700  0.25036900  0.58143000  1
  C  925  1  0.66335200  0.26331700  0.59451400  1
  C  926  1  0.66093800  0.29754700  0.59635200  1
  C  928  1  0.69663500  0.21665800  0.58038600  1
  C  929  1  0.71961700  0.20091400  0.59555500  1
  C  930  1  0.71962500  0.16648500  0.59592400  1
  C  931  1  0.69776200  0.14804700  0.58177700  1
  C  932  1  0.67643500  0.16530400  0.56651300  1
  C  937  1  0.74221200  0.21813000  0.61214200  1
  C  941  1  0.63913400  0.24219300  0.60685800  1
  C  945  1  0.68551200  0.64707700  0.41869800  1
  C  946  1  0.71090300  0.66262900  0.43137300  1
  C  948  1  0.69044700  0.71546300  0.42140000  1
  C  949  1  0.66368300  0.70158000  0.40888600  1
  C  950  1  0.66175400  0.66726200  0.40787200  1
  C  952  1  0.69648700  0.74928600  0.42156000  1
  C  953  1  0.71858600  0.76478700  0.40555700  1
  C  954  1  0.71793600  0.79918500  0.40439800  1
  C  955  1  0.69633900  0.81781100  0.41862400  1
  C  956  1  0.67586600  0.80080500  0.43466900  1
  C  961  1  0.74092300  0.74724900  0.38897000  1
  C  965  1  0.63897600  0.72180700  0.39625200  1
  C  969  1  0.81706700  0.31313900  0.91869400  1
  C  970  1  0.79167300  0.29758600  0.93136800  1
  C  972  1  0.81212700  0.24475000  0.92138900  1
  C  973  1  0.83888800  0.25863300  0.90887400  1
  C  974  1  0.84082000  0.29295300  0.90786100  1
  C  976  1  0.80608400  0.21092900  0.92154800  1
  C  977  1  0.78397400  0.19543300  0.90555100  1
  C  978  1  0.78461600  0.16103500  0.90438900  1
  C  979  1  0.80623500  0.14240900  0.91859700  1
  C  980  1  0.82670800  0.15940400  0.93464900  1
  C  985  1  0.76162400  0.21297600  0.88897600  1
  C  989  1  0.86359100  0.23840600  0.89623600  1
  C  993  1  0.41303300  0.41695800  0.66697500  1
  C  994  1  0.42808400  0.44239800  0.67992800  1
  C  996  1  0.48129300  0.42170400  0.67138700  1
  C  997  1  0.46790400  0.39488900  0.65863700  1
  C  998  1  0.43364500  0.39304700  0.65678300  1
  C  1000  1  0.51510600  0.42770900  0.67231300  1
  C  1001  1  0.53116700  0.45017800  0.65690700  1
  C  1002  1  0.56558900  0.44956500  0.65643500  1
  C  1003  1  0.58371100  0.42757600  0.67069200  1
  C  1004  1  0.56617100  0.40679100  0.68618700  1
  C  1009  1  0.51427400  0.47282400  0.64017600  1
  C  1013  1  0.48860300  0.37001900  0.64661000  1
  C  1017  1  0.08952300  0.54321900  0.16697600  1
  C  1018  1  0.07447000  0.51778600  0.17993300  1
  C  1020  1  0.02126400  0.53848600  0.17138700  1
  C  1021  1  0.03465700  0.56529600  0.15863900  1
  C  1022  1  0.06891600  0.56713600  0.15678400  1
  C  1024  1  0.98745100  0.53248200  0.17231400  1
  C  1025  1  0.97138200  0.51003100  0.15689800  1
  C  1026  1  0.93696100  0.51065400  0.15642800  1
  C  1027  1  0.91883800  0.53262600  0.17070300  1
  C  1028  1  0.93639100  0.55340300  0.18619600  1
  C  1033  1  0.98827100  0.48739700  0.14015800  1
  C  1037  1  0.01396000  0.59017100  0.14661100  1
  C  1041  1  0.08417900  0.41865300  0.83346000  1
  C  1042  1  0.06820500  0.44404200  0.82107800  1
  C  1044  1  0.01572700  0.42243500  0.83078700  1
  C  1045  1  0.03007100  0.39561800  0.84294800  1
  C  1046  1  0.06441200  0.39426500  0.84393900  1
  C  1048  1  0.98181000  0.42791300  0.83076900  1
  C  1049  1  0.96602100  0.44946900  0.84702600  1
  C  1050  1  0.93165100  0.44817400  0.84830800  1
  C  1051  1  0.91332600  0.42643800  0.83398300  1
  C  1052  1  0.93058200  0.40654900  0.81768500  1
  C  1057  1  0.98326000  0.47185900  0.86374300  1
  C  1061  1  0.01029300  0.37027800  0.85528700  1
  C  1065  1  0.41837500  0.54152200  0.33346500  1
  C  1066  1  0.43435300  0.51614300  0.32107600  1
  C  1068  1  0.48682600  0.53775700  0.33079000  1
  C  1069  1  0.47247600  0.56457200  0.34294900  1
  C  1070  1  0.43813500  0.56591700  0.34394200  1
  C  1072  1  0.52074500  0.53228400  0.33077200  1
  C  1073  1  0.53653600  0.51074500  0.34703700  1
  C  1074  1  0.57090600  0.51204700  0.34831900  1
  C  1075  1  0.58923000  0.53376600  0.33398000  1
  C  1076  1  0.57196500  0.55365300  0.31768300  1
  C  1081  1  0.51929900  0.48836400  0.36376300  1
  C  1085  1  0.49225100  0.58991700  0.35529000  1
  N  323  1  0.26771700  0.44319600  0.72732700  1
  N  333  1  0.21178100  0.40068500  0.76067100  1
  N  347  1  0.23483400  0.51702900  0.22733400  1
  N  357  1  0.29077200  0.55954000  0.26067400  1
  N  371  1  0.78992400  0.99855300  0.97879600  1
  N  381  1  0.83186300  0.94000500  0.01024900  1
  N  395  1  0.71263300  0.96165700  0.47882100  1
  N  405  1  0.67069400  0.02020900  0.51026800  1
  N  419  1  0.73273600  0.51878400  0.27365000  1
  N  429  1  0.79131600  0.56067600  0.24227100  1
  N  443  1  0.76982500  0.44140000  0.77364100  1
  N  453  1  0.71123900  0.39950700  0.74226500  1
  N  467  1  0.20764700  0.96227800  0.02397300  1
  N  477  1  0.16543600  0.01999400  0.99200200  1
  N  491  1  0.29490400  0.99789900  0.52395900  1
  N  501  1  0.33712200  0.94019300  0.49198700  1
  N  515  1  0.76670800  0.93771600  0.22689900  1
  N  525  1  0.71183500  0.89488100  0.26088300  1
  N  539  1  0.73583900  0.02246800  0.72689700  1
  N  549  1  0.79072400  0.06530000  0.76087400  1
  N  563  1  0.28831900  0.49600900  0.47705400  1
  N  573  1  0.33098800  0.44050800  0.51060700  1
  N  587  1  0.21423700  0.46420200  0.97704400  1
  N  597  1  0.17155500  0.51967400  0.01060800  1
  N  611  1  0.23361300  0.02351900  0.77406600  1
  N  621  1  0.29126600  0.06586200  0.74208600  1
  N  635  1  0.26894500  0.93669600  0.27406700  1
  N  645  1  0.21128500  0.89435500  0.24209300  1
  N  659  1  0.70918000  0.46433700  0.52544600  1
  N  669  1  0.66638900  0.51951900  0.49169100  1
  N  683  1  0.79336900  0.49585700  0.02545300  1
  N  693  1  0.83617200  0.44069200  0.99169200  1
  N  707  1  0.21276600  0.26957400  0.93127500  1
  N  717  1  0.17455100  0.19797500  0.93560100  1
  N  731  1  0.28979600  0.69061400  0.43126600  1
  N  741  1  0.32801100  0.76221500  0.43558700  1
  N  755  1  0.96087200  0.93819300  0.18125400  1
  N  765  1  0.03299900  0.90116200  0.18537500  1
  N  779  1  0.54166800  0.02200800  0.68125900  1
  N  789  1  0.46953400  0.05903500  0.68537500  1
  N  803  1  0.28845200  0.26314000  0.57054600  1
  N  813  1  0.32749800  0.19206000  0.56735300  1
  N  827  1  0.21408700  0.69704600  0.07055100  1
  N  837  1  0.17504500  0.76813100  0.06736300  1
  N  851  1  0.53519200  0.93940100  0.32064600  1
  N  861  1  0.46358200  0.90153100  0.31767900  1
  N  875  1  0.96737200  0.02080900  0.82063700  1
  N  885  1  0.03899200  0.05867500  0.81767200  1
  N  899  1  0.79061700  0.68918800  0.07120600  1
  N  909  1  0.82639200  0.76192300  0.06679700  1
  N  923  1  0.71192300  0.27102000  0.57121500  1
  N  933  1  0.67614800  0.19828100  0.56681900  1
  N  947  1  0.71274000  0.69559300  0.43191500  1
  N  957  1  0.67615800  0.76783900  0.43511000  1
  N  971  1  0.78983400  0.26462200  0.93190800  1
  N  981  1  0.82641900  0.19237000  0.93509200  1
  N  995  1  0.46100700  0.44413800  0.68129300  1
  N  1005  1  0.53319400  0.40709500  0.68598700  1
  N  1019  1  0.04154700  0.51604900  0.18129700  1
  N  1029  1  0.96936700  0.55309400  0.18599400  1
  N  1043  1  0.03521200  0.44531500  0.82055800  1
  N  1053  1  0.96352900  0.40745700  0.81712000  1
  N  1067  1  0.46734600  0.51487700  0.32055600  1
  N  1077  1  0.53901800  0.55274000  0.31711800  1
  O  17  1  0.21927000  0.40612100  0.84695900  1
  O  18  1  0.17375700  0.45313800  0.90269600  1
  O  37  1  0.28329300  0.55410000  0.34697200  1
  O  38  1  0.32880200  0.50703900  0.40270700  1
  O  57  1  0.82889600  0.94519200  0.09723900  1
  O  58  1  0.77772700  0.89813500  0.15245400  1
  O  77  1  0.67362900  0.01502800  0.59726100  1
  O  78  1  0.72482500  0.06206100  0.65247800  1
  O  97  1  0.27825800  0.40175400  0.65251200  1
  O  98  1  0.32482100  0.44785200  0.59676900  1
  O  117  1  0.22428700  0.55846300  0.15249700  1
  O  118  1  0.17773800  0.51232400  0.09676500  1
  O  137  1  0.66937000  0.95019300  0.40242600  1
  O  138  1  0.71954000  0.90217600  0.34712100  1
  O  157  1  0.83321100  0.01003100  0.90240100  1
  O  158  1  0.78302000  0.05801800  0.84710300  1
  O  177  1  0.78607100  0.55829900  0.15527900  1
  O  178  1  0.83356100  0.50676800  0.10003600  1
  O  197  1  0.71647100  0.40188300  0.65526800  1
  O  198  1  0.66899100  0.45345400  0.60002200  1
  O  217  1  0.16940000  0.01421800  0.90497900  1
  O  218  1  0.22194100  0.06539300  0.85015600  1
  O  237  1  0.33319000  0.94596100  0.40496500  1
  O  238  1  0.28062100  0.89481000  0.35014500  1
  O  257  1  0.72127200  0.56248600  0.35012000  1
  O  258  1  0.67301100  0.51185900  0.40543200  1
  O  277  1  0.78129200  0.39770100  0.85013100  1
  O  278  1  0.82953600  0.44836600  0.90543600  1
  O  297  1  0.33738800  0.00937400  0.60036700  1
  O  298  1  0.28567600  0.06141200  0.65516700  1
  O  317  1  0.16513000  0.95080100  0.10039000  1
  O  318  1  0.21686800  0.89879200  0.15517800  1
