# generated using pymatgen
data_H24C49(N3O2)4
_symmetry_space_group_name_H-M   'P 1'
_cell_length_a   43.43300000
_cell_length_b   43.43300000
_cell_length_c   59.29420000
_cell_angle_alpha   90.00000000
_cell_angle_beta   90.00000000
_cell_angle_gamma   90.00000000
_symmetry_Int_Tables_number   1
_chemical_formula_structural   H24C49(N3O2)4
_chemical_formula_sum   'H384 C784 N192 O128'
_cell_volume   111854.09022986
_cell_formula_units_Z   16
loop_
 _symmetry_equiv_pos_site_id
 _symmetry_equiv_pos_as_xyz
  1  'x, y, z'
loop_
 _atom_site_type_symbol
 _atom_site_label
 _atom_site_symmetry_multiplicity
 _atom_site_fract_x
 _atom_site_fract_y
 _atom_site_fract_z
 _atom_site_occupancy
  H  25  1  0.92886700  0.99422500  0.21103900  1
  H  26  1  0.91297400  0.04618000  0.20304800  1
  H  27  1  0.88784800  0.09591200  0.19028700  1
  H  28  1  0.85706900  0.13664700  0.17459000  1
  H  29  1  0.81493100  0.07307400  0.12999800  1
  H  30  1  0.87165300  0.96148500  0.15836000  1
  H  31  1  0.89940400  0.03370200  0.11716700  1
  H  32  1  0.86109900  0.98592800  0.06147300  1
  H  33  1  0.81664400  0.97321400  0.08368600  1
  H  34  1  0.80797500  0.01270400  0.18357800  1
  H  35  1  0.77576000  0.96330200  0.11366900  1
  H  36  1  0.74475400  0.95770500  0.14687200  1
  H  42  1  0.90870300  0.92722600  0.17917300  1
  H  43  1  0.81303400  0.13464300  0.12553800  1
  H  44  1  0.76544100  0.98739200  0.20300800  1
  H  45  1  0.92257000  0.03723200  0.07843300  1
  H  70  1  0.57317500  0.50778200  0.21053000  1
  H  71  1  0.58886600  0.45587200  0.20211700  1
  H  72  1  0.61326600  0.40604800  0.18851200  1
  H  73  1  0.64374800  0.36547100  0.17248900  1
  H  74  1  0.68823000  0.43005300  0.12990600  1
  H  75  1  0.63134700  0.54117600  0.15864200  1
  H  76  1  0.60352300  0.46907200  0.11699700  1
  H  77  1  0.64161800  0.51735800  0.06147200  1
  H  78  1  0.68603100  0.53010800  0.08373100  1
  H  79  1  0.69479400  0.49001200  0.18350900  1
  H  80  1  0.72675600  0.54015400  0.11382100  1
  H  81  1  0.75768600  0.54570700  0.14706100  1
  H  87  1  0.59368000  0.57523500  0.17945100  1
  H  88  1  0.70030200  0.37452400  0.12747400  1
  H  89  1  0.73708500  0.51561700  0.20306900  1
  H  90  1  0.58034000  0.46569200  0.07832700  1
  H  115  1  0.00816400  0.42858700  0.71103700  1
  H  116  1  0.95618800  0.41287300  0.70292000  1
  H  117  1  0.90644400  0.38784800  0.69007900  1
  H  118  1  0.86571000  0.35708600  0.67436200  1
  H  119  1  0.92931900  0.31486900  0.62983700  1
  H  120  1  0.04092100  0.37144800  0.65831700  1
  H  121  1  0.96879800  0.39935500  0.61707300  1
  H  122  1  0.01666700  0.36110300  0.56140400  1
  H  123  1  0.02929300  0.31660000  0.58359300  1
  H  124  1  0.98965500  0.30786700  0.68344700  1
  H  125  1  0.03920900  0.27572300  0.61358200  1
  H  126  1  0.04480200  0.24472600  0.64679300  1
  H  132  1  0.07545100  0.40846600  0.67942500  1
  H  133  1  0.86769700  0.31302700  0.62535400  1
  H  134  1  0.01503600  0.26540400  0.70290300  1
  H  135  1  0.96536000  0.42258900  0.57837000  1
  H  160  1  0.49445600  0.07268000  0.71046200  1
  H  161  1  0.54636100  0.08852700  0.70220300  1
  H  162  1  0.59617100  0.11314300  0.68881000  1
  H  163  1  0.63675800  0.14373100  0.67291900  1
  H  164  1  0.57230700  0.18807400  0.63014900  1
  H  165  1  0.46115200  0.13097500  0.65861500  1
  H  166  1  0.53333900  0.10331200  0.61710000  1
  H  167  1  0.48531300  0.14154400  0.56150300  1
  H  168  1  0.47250900  0.18592800  0.58377500  1
  H  169  1  0.51232900  0.19458100  0.68361800  1
  H  170  1  0.46254200  0.22672100  0.61383200  1
  H  171  1  0.45700700  0.25768700  0.64705800  1
  H  177  1  0.42715700  0.09341700  0.67922900  1
  H  178  1  0.62789600  0.19983500  0.62765100  1
  H  179  1  0.48695900  0.23705500  0.70311700  1
  H  180  1  0.53686100  0.08021000  0.57838800  1
  H  205  1  0.07447000  0.00826900  0.79072800  1
  H  206  1  0.09027500  0.95627700  0.79873500  1
  H  207  1  0.11524900  0.90649000  0.81160800  1
  H  208  1  0.14561500  0.86566400  0.82760800  1
  H  209  1  0.18734400  0.92916400  0.87246200  1
  H  210  1  0.13136800  0.04089800  0.84363700  1
  H  211  1  0.10218800  0.97005000  0.88389900  1
  H  212  1  0.13906000  0.01814600  0.93997100  1
  H  213  1  0.18465100  0.02949000  0.91866200  1
  H  214  1  0.19541600  0.98957200  0.81894800  1
  H  215  1  0.22652200  0.03889300  0.88914000  1
  H  216  1  0.25808900  0.04448300  0.85620100  1
  H  222  1  0.09405200  0.07518500  0.82278600  1
  H  223  1  0.18896000  0.86749500  0.87693800  1
  H  224  1  0.23841100  0.01435800  0.79993400  1
  H  225  1  0.07421000  0.97143900  0.91974300  1
  H  250  1  0.42946800  0.49475500  0.79150300  1
  H  251  1  0.41353600  0.54666300  0.79972800  1
  H  252  1  0.38912600  0.59652800  0.81335700  1
  H  253  1  0.35895100  0.63715400  0.82962900  1
  H  254  1  0.31479700  0.57259500  0.87241500  1
  H  255  1  0.37135400  0.46144400  0.84346100  1
  H  256  1  0.40022300  0.53227500  0.88407900  1
  H  257  1  0.36339400  0.48383700  0.94000200  1
  H  258  1  0.31791700  0.47235500  0.91858800  1
  H  259  1  0.30730500  0.51265200  0.81891600  1
  H  260  1  0.27607300  0.46305600  0.88898700  1
  H  261  1  0.24460900  0.45753000  0.85599200  1
  H  267  1  0.40922100  0.42760800  0.82303600  1
  H  268  1  0.30308700  0.62799200  0.87502900  1
  H  269  1  0.26447900  0.48764500  0.79977700  1
  H  270  1  0.42802200  0.53101300  0.91997300  1
  H  295  1  0.99417000  0.57382600  0.29106700  1
  H  296  1  0.04612900  0.58996800  0.29883800  1
  H  297  1  0.09590400  0.61521600  0.31152900  1
  H  298  1  0.13672900  0.64563600  0.32748400  1
  H  299  1  0.07324400  0.68739000  0.37233600  1
  H  300  1  0.96155900  0.63108900  0.34377000  1
  H  301  1  0.03247200  0.60222400  0.38386700  1
  H  302  1  0.98452800  0.63917500  0.43998200  1
  H  303  1  0.97312400  0.68473700  0.41865400  1
  H  304  1  0.01278900  0.69534900  0.31887100  1
  H  305  1  0.96369100  0.72660900  0.38911400  1
  H  306  1  0.95805900  0.75814500  0.35616400  1
  H  312  1  0.92738900  0.59382500  0.32328400  1
  H  313  1  0.13488300  0.68903600  0.37680200  1
  H  314  1  0.98806200  0.73838800  0.29987100  1
  H  315  1  0.03123300  0.57433500  0.41976200  1
  H  340  1  0.50775200  0.92911600  0.29130000  1
  H  341  1  0.45582600  0.91334000  0.29961600  1
  H  342  1  0.40595200  0.88904300  0.31330000  1
  H  343  1  0.36530300  0.85893400  0.32960500  1
  H  344  1  0.42983000  0.81480700  0.37243200  1
  H  345  1  0.54103800  0.87118300  0.34337700  1
  H  346  1  0.47029000  0.90023900  0.38401400  1
  H  347  1  0.51875500  0.86345600  0.43994000  1
  H  348  1  0.53015000  0.81792600  0.41856500  1
  H  349  1  0.48980000  0.80721100  0.31892000  1
  H  350  1  0.53947500  0.77609200  0.38898400  1
  H  351  1  0.54502800  0.74461600  0.35600100  1
  H  357  1  0.57501200  0.90904400  0.32271900  1
  H  358  1  0.37441800  0.80312900  0.37504800  1
  H  359  1  0.51483000  0.76438600  0.29979500  1
  H  360  1  0.47169400  0.92814900  0.41985000  1
  H  367  1  0.95259100  0.05122400  0.04558400  1
  H  374  1  0.02876300  0.96917100  0.94142200  1
  H  375  1  0.07938800  0.03098600  0.98156200  1
  H  376  1  0.93884100  0.95680700  0.03338600  1
  H  391  1  0.55021100  0.45161500  0.04562500  1
  H  398  1  0.47358200  0.53321400  0.94145400  1
  H  399  1  0.42321300  0.47137000  0.98174300  1
  H  400  1  0.56381100  0.54600200  0.03321700  1
  H  415  1  0.95136400  0.45261400  0.54553200  1
  H  422  1  0.03341700  0.52883100  0.44138300  1
  H  423  1  0.97160200  0.57943300  0.48154100  1
  H  424  1  0.04577000  0.43882800  0.53330600  1
  H  439  1  0.55095900  0.05013400  0.54564700  1
  H  446  1  0.46936900  0.97362400  0.44142600  1
  H  447  1  0.53119300  0.92319900  0.48169300  1
  H  448  1  0.45656300  0.06371700  0.53325900  1
  H  463  1  0.71295300  0.31986300  0.11570200  1
  H  470  1  0.75558000  0.16643600  0.17996000  1
  H  471  1  0.80856500  0.19580700  0.12465500  1
  H  472  1  0.71306100  0.31291900  0.18647800  1
  H  487  1  0.68237300  0.21292100  0.61591500  1
  H  494  1  0.83619600  0.25540700  0.67975900  1
  H  495  1  0.80648100  0.30850500  0.62461200  1
  H  496  1  0.68986500  0.21263700  0.68666200  1
  H  511  1  0.28993600  0.68264700  0.88672300  1
  H  518  1  0.24705400  0.83606500  0.82262600  1
  H  519  1  0.19396200  0.80650600  0.87782500  1
  H  520  1  0.28954900  0.68962100  0.81594400  1
  H  535  1  0.31975200  0.78993400  0.38671000  1
  H  542  1  0.16639300  0.74709100  0.32251700  1
  H  543  1  0.19589000  0.69397000  0.37771800  1
  H  544  1  0.31284000  0.78958200  0.31592800  1
  H  559  1  0.58102100  0.87820500  0.25285100  1
  H  566  1  0.73968600  0.96033200  0.23319300  1
  H  567  1  0.67403600  0.95207100  0.18131300  1
  H  568  1  0.61193300  0.94501900  0.29900400  1
  H  583  1  0.92122800  0.62484500  0.25345500  1
  H  590  1  0.76279800  0.54252100  0.23331100  1
  H  591  1  0.82853600  0.55105800  0.18151300  1
  H  592  1  0.89021000  0.55776500  0.29936100  1
  H  607  1  0.12479100  0.08140700  0.75283400  1
  H  614  1  0.04218400  0.23976500  0.73309000  1
  H  615  1  0.05040400  0.17398900  0.68129000  1
  H  616  1  0.05806900  0.11222900  0.79908900  1
  H  631  1  0.37809000  0.42156700  0.75322800  1
  H  638  1  0.46001700  0.26283500  0.73334300  1
  H  639  1  0.45152500  0.32844100  0.68145200  1
  H  640  1  0.44515200  0.39055100  0.79915200  1
  H  655  1  0.42197400  0.12407500  0.74917900  1
  H  662  1  0.26329300  0.04222300  0.76979300  1
  H  663  1  0.32916000  0.05103200  0.82146800  1
  H  664  1  0.39026800  0.05725400  0.70333300  1
  H  679  1  0.08064300  0.37808600  0.74935600  1
  H  686  1  0.23936600  0.45992400  0.76964100  1
  H  687  1  0.17348400  0.45151800  0.82134100  1
  H  688  1  0.11228500  0.44457200  0.70322700  1
  H  703  1  0.87808300  0.92180800  0.24918900  1
  H  710  1  0.96017500  0.76327400  0.26974500  1
  H  711  1  0.95147900  0.82917400  0.32140600  1
  H  712  1  0.94479500  0.89017800  0.20323100  1
  H  727  1  0.62422800  0.58040900  0.24941200  1
  H  734  1  0.54255500  0.73926500  0.26965700  1
  H  735  1  0.55107900  0.67346000  0.32139900  1
  H  736  1  0.55764000  0.61205800  0.20336400  1
  H  769  1  0.92886700  0.99422500  0.51461000  1
  H  770  1  0.91297400  0.04618000  0.50661900  1
  H  771  1  0.88784800  0.09591200  0.49385800  1
  H  772  1  0.85706900  0.13664700  0.47816100  1
  H  773  1  0.81493100  0.07307400  0.43356900  1
  H  774  1  0.87165300  0.96148500  0.46193100  1
  H  775  1  0.89940400  0.03370200  0.42073800  1
  H  776  1  0.86109900  0.98592800  0.36504400  1
  H  777  1  0.81664400  0.97321400  0.38725700  1
  H  778  1  0.80797500  0.01270400  0.48714900  1
  H  779  1  0.77576000  0.96330200  0.41724000  1
  H  780  1  0.74475400  0.95770500  0.45044300  1
  H  786  1  0.90870300  0.92722600  0.48274400  1
  H  787  1  0.81303400  0.13464300  0.42910900  1
  H  788  1  0.76544100  0.98739200  0.50657900  1
  H  789  1  0.92257000  0.03723200  0.38200400  1
  H  814  1  0.57317500  0.50778200  0.51410100  1
  H  815  1  0.58886600  0.45587200  0.50568800  1
  H  816  1  0.61326600  0.40604800  0.49208300  1
  H  817  1  0.64374800  0.36547100  0.47606000  1
  H  818  1  0.68823000  0.43005300  0.43347700  1
  H  819  1  0.63134700  0.54117600  0.46221300  1
  H  820  1  0.60352300  0.46907200  0.42056800  1
  H  821  1  0.64161800  0.51735800  0.36504300  1
  H  822  1  0.68603100  0.53010800  0.38730200  1
  H  823  1  0.69479400  0.49001200  0.48708000  1
  H  824  1  0.72675600  0.54015400  0.41739200  1
  H  825  1  0.75768600  0.54570700  0.45063200  1
  H  831  1  0.59368000  0.57523500  0.48302200  1
  H  832  1  0.70030200  0.37452400  0.43104500  1
  H  833  1  0.73708500  0.51561700  0.50664000  1
  H  834  1  0.58034000  0.46569200  0.38189800  1
  H  859  1  0.00816400  0.42858700  0.01460800  1
  H  860  1  0.95618800  0.41287300  0.00649101  1
  H  861  1  0.90644400  0.38784800  0.99365000  1
  H  862  1  0.86571000  0.35708600  0.97793300  1
  H  863  1  0.92931900  0.31486900  0.93340800  1
  H  864  1  0.04092100  0.37144800  0.96188800  1
  H  865  1  0.96879800  0.39935500  0.92064400  1
  H  866  1  0.01666700  0.36110300  0.86497500  1
  H  867  1  0.02929300  0.31660000  0.88716400  1
  H  868  1  0.98965500  0.30786700  0.98701800  1
  H  869  1  0.03920900  0.27572300  0.91715300  1
  H  870  1  0.04480200  0.24472600  0.95036400  1
  H  876  1  0.07545100  0.40846600  0.98299600  1
  H  877  1  0.86769700  0.31302700  0.92892500  1
  H  878  1  0.01503600  0.26540400  0.00647401  1
  H  879  1  0.96536000  0.42258900  0.88194100  1
  H  904  1  0.49445600  0.07268000  0.01403300  1
  H  905  1  0.54636100  0.08852700  0.00577401  1
  H  906  1  0.59617100  0.11314300  0.99238100  1
  H  907  1  0.63675800  0.14373100  0.97649000  1
  H  908  1  0.57230700  0.18807400  0.93372000  1
  H  909  1  0.46115200  0.13097500  0.96218600  1
  H  910  1  0.53333900  0.10331200  0.92067100  1
  H  911  1  0.48531300  0.14154400  0.86507400  1
  H  912  1  0.47250900  0.18592800  0.88734600  1
  H  913  1  0.51232900  0.19458100  0.98718900  1
  H  914  1  0.46254200  0.22672100  0.91740300  1
  H  915  1  0.45700700  0.25768700  0.95062900  1
  H  921  1  0.42715700  0.09341700  0.98280000  1
  H  922  1  0.62789600  0.19983500  0.93122200  1
  H  923  1  0.48695900  0.23705500  0.00668801  1
  H  924  1  0.53686100  0.08021000  0.88195900  1
  H  949  1  0.07447000  0.00826900  0.09429900  1
  H  950  1  0.09027500  0.95627700  0.10230600  1
  H  951  1  0.11524900  0.90649000  0.11517900  1
  H  952  1  0.14561500  0.86566400  0.13117900  1
  H  953  1  0.18734400  0.92916400  0.17603300  1
  H  954  1  0.13136800  0.04089800  0.14720800  1
  H  955  1  0.10218800  0.97005000  0.18747000  1
  H  956  1  0.13906000  0.01814600  0.24354200  1
  H  957  1  0.18465100  0.02949000  0.22223300  1
  H  958  1  0.19541600  0.98957200  0.12251900  1
  H  959  1  0.22652200  0.03889300  0.19271100  1
  H  960  1  0.25808900  0.04448300  0.15977200  1
  H  966  1  0.09405200  0.07518500  0.12635700  1
  H  967  1  0.18896000  0.86749500  0.18050900  1
  H  968  1  0.23841100  0.01435800  0.10350500  1
  H  969  1  0.07421000  0.97143900  0.22331400  1
  H  994  1  0.42946800  0.49475500  0.09507400  1
  H  995  1  0.41353600  0.54666300  0.10329900  1
  H  996  1  0.38912600  0.59652800  0.11692800  1
  H  997  1  0.35895100  0.63715400  0.13320000  1
  H  998  1  0.31479700  0.57259500  0.17598600  1
  H  999  1  0.37135400  0.46144400  0.14703200  1
  H  1000  1  0.40022300  0.53227500  0.18765000  1
  H  1001  1  0.36339400  0.48383700  0.24357300  1
  H  1002  1  0.31791700  0.47235500  0.22215900  1
  H  1003  1  0.30730500  0.51265200  0.12248700  1
  H  1004  1  0.27607300  0.46305600  0.19255800  1
  H  1005  1  0.24460900  0.45753000  0.15956300  1
  H  1011  1  0.40922100  0.42760800  0.12660700  1
  H  1012  1  0.30308700  0.62799200  0.17860000  1
  H  1013  1  0.26447900  0.48764500  0.10334800  1
  H  1014  1  0.42802200  0.53101300  0.22354400  1
  H  1039  1  0.99417000  0.57382600  0.59463800  1
  H  1040  1  0.04612900  0.58996800  0.60240900  1
  H  1041  1  0.09590400  0.61521600  0.61510000  1
  H  1042  1  0.13672900  0.64563600  0.63105500  1
  H  1043  1  0.07324400  0.68739000  0.67590700  1
  H  1044  1  0.96155900  0.63108900  0.64734100  1
  H  1045  1  0.03247200  0.60222400  0.68743800  1
  H  1046  1  0.98452800  0.63917500  0.74355300  1
  H  1047  1  0.97312400  0.68473700  0.72222500  1
  H  1048  1  0.01278900  0.69534900  0.62244200  1
  H  1049  1  0.96369100  0.72660900  0.69268500  1
  H  1050  1  0.95805900  0.75814500  0.65973500  1
  H  1056  1  0.92738900  0.59382500  0.62685500  1
  H  1057  1  0.13488300  0.68903600  0.68037300  1
  H  1058  1  0.98806200  0.73838800  0.60344200  1
  H  1059  1  0.03123300  0.57433500  0.72333300  1
  H  1084  1  0.50775200  0.92911600  0.59487100  1
  H  1085  1  0.45582600  0.91334000  0.60318700  1
  H  1086  1  0.40595200  0.88904300  0.61687100  1
  H  1087  1  0.36530300  0.85893400  0.63317600  1
  H  1088  1  0.42983000  0.81480700  0.67600300  1
  H  1089  1  0.54103800  0.87118300  0.64694800  1
  H  1090  1  0.47029000  0.90023900  0.68758500  1
  H  1091  1  0.51875500  0.86345600  0.74351100  1
  H  1092  1  0.53015000  0.81792600  0.72213600  1
  H  1093  1  0.48980000  0.80721100  0.62249100  1
  H  1094  1  0.53947500  0.77609200  0.69255500  1
  H  1095  1  0.54502800  0.74461600  0.65957200  1
  H  1101  1  0.57501200  0.90904400  0.62629000  1
  H  1102  1  0.37441800  0.80312900  0.67861900  1
  H  1103  1  0.51483000  0.76438600  0.60336600  1
  H  1104  1  0.47169400  0.92814900  0.72342100  1
  H  1111  1  0.95259100  0.05122400  0.34915500  1
  H  1118  1  0.02876300  0.96917100  0.24499300  1
  H  1119  1  0.07938800  0.03098600  0.28513300  1
  H  1120  1  0.93884100  0.95680700  0.33695700  1
  H  1135  1  0.55021100  0.45161500  0.34919600  1
  H  1142  1  0.47358200  0.53321400  0.24502500  1
  H  1143  1  0.42321300  0.47137000  0.28531400  1
  H  1144  1  0.56381100  0.54600200  0.33678800  1
  H  1159  1  0.95136400  0.45261400  0.84910300  1
  H  1166  1  0.03341700  0.52883100  0.74495400  1
  H  1167  1  0.97160200  0.57943300  0.78511200  1
  H  1168  1  0.04577000  0.43882800  0.83687700  1
  H  1183  1  0.55095900  0.05013400  0.84921800  1
  H  1190  1  0.46936900  0.97362400  0.74499700  1
  H  1191  1  0.53119300  0.92319900  0.78526400  1
  H  1192  1  0.45656300  0.06371700  0.83683000  1
  H  1207  1  0.71295300  0.31986300  0.41927300  1
  H  1214  1  0.75558000  0.16643600  0.48353100  1
  H  1215  1  0.80856500  0.19580700  0.42822600  1
  H  1216  1  0.71306100  0.31291900  0.49004900  1
  H  1231  1  0.68237300  0.21292100  0.91948600  1
  H  1238  1  0.83619600  0.25540700  0.98333000  1
  H  1239  1  0.80648100  0.30850500  0.92818300  1
  H  1240  1  0.68986500  0.21263700  0.99023300  1
  H  1255  1  0.28993600  0.68264700  0.19029400  1
  H  1262  1  0.24705400  0.83606500  0.12619700  1
  H  1263  1  0.19396200  0.80650600  0.18139600  1
  H  1264  1  0.28954900  0.68962100  0.11951500  1
  H  1279  1  0.31975200  0.78993400  0.69028100  1
  H  1286  1  0.16639300  0.74709100  0.62608800  1
  H  1287  1  0.19589000  0.69397000  0.68128900  1
  H  1288  1  0.31284000  0.78958200  0.61949900  1
  H  1303  1  0.58102100  0.87820500  0.55642200  1
  H  1310  1  0.73968600  0.96033200  0.53676400  1
  H  1311  1  0.67403600  0.95207100  0.48488400  1
  H  1312  1  0.61193300  0.94501900  0.60257500  1
  H  1327  1  0.92122800  0.62484500  0.55702600  1
  H  1334  1  0.76279800  0.54252100  0.53688200  1
  H  1335  1  0.82853600  0.55105800  0.48508400  1
  H  1336  1  0.89021000  0.55776500  0.60293200  1
  H  1351  1  0.12479100  0.08140700  0.05640500  1
  H  1358  1  0.04218400  0.23976500  0.03666100  1
  H  1359  1  0.05040400  0.17398900  0.98486100  1
  H  1360  1  0.05806900  0.11222900  0.10266000  1
  H  1375  1  0.37809000  0.42156700  0.05679900  1
  H  1382  1  0.46001700  0.26283500  0.03691400  1
  H  1383  1  0.45152500  0.32844100  0.98502300  1
  H  1384  1  0.44515200  0.39055100  0.10272300  1
  H  1399  1  0.42197400  0.12407500  0.05275000  1
  H  1406  1  0.26329300  0.04222300  0.07336400  1
  H  1407  1  0.32916000  0.05103200  0.12503900  1
  H  1408  1  0.39026800  0.05725400  0.00690401  1
  H  1423  1  0.08064300  0.37808600  0.05292700  1
  H  1430  1  0.23936600  0.45992400  0.07321200  1
  H  1431  1  0.17348400  0.45151800  0.12491200  1
  H  1432  1  0.11228500  0.44457200  0.00679801  1
  H  1447  1  0.87808300  0.92180800  0.55276000  1
  H  1454  1  0.96017500  0.76327400  0.57331600  1
  H  1455  1  0.95147900  0.82917400  0.62497700  1
  H  1456  1  0.94479500  0.89017800  0.50680200  1
  H  1471  1  0.62422800  0.58040900  0.55298300  1
  H  1478  1  0.54255500  0.73926500  0.57322800  1
  H  1479  1  0.55107900  0.67346000  0.62497000  1
  H  1480  1  0.55764000  0.61205800  0.50693500  1
  C  1  1  0.81848800  0.00580700  0.14929500  1
  C  2  1  0.80946000  0.99141200  0.12926800  1
  C  3  1  0.83210200  0.99629800  0.11306500  1
  C  4  1  0.85587400  0.01363100  0.12269100  1
  C  5  1  0.88218400  0.02112200  0.10982500  1
  C  6  1  0.88477900  0.01088600  0.08715300  1
  C  7  1  0.86021400  0.99340800  0.07782400  1
  C  8  1  0.83396900  0.98598100  0.09064800  1
  C  9  1  0.78211500  0.97419500  0.12821600  1
  C  10  1  0.76412400  0.97103800  0.14783400  1
  C  11  1  0.77300000  0.98496100  0.16856100  1
  C  12  1  0.80041700  0.00274900  0.16894200  1
  C  13  1  0.87208300  0.00968100  0.16289000  1
  C  14  1  0.88366900  0.03393200  0.17589700  1
  C  15  1  0.86946600  0.06111200  0.16914300  1
  C  16  1  0.84857400  0.05448500  0.15182600  1
  C  17  1  0.87272800  0.09118600  0.17754800  1
  C  18  1  0.85449500  0.11482700  0.16833900  1
  C  19  1  0.83298200  0.10872300  0.15087500  1
  C  20  1  0.83036200  0.07824200  0.14247900  1
  C  21  1  0.88118000  0.97909600  0.16745600  1
  C  22  1  0.90187900  0.97294400  0.18540900  1
  C  23  1  0.91390400  0.99801500  0.19798700  1
  C  24  1  0.90486000  0.02849100  0.19336800  1
  C  37  1  0.84880800  0.02105700  0.14656600  1
  C  38  1  0.81512200  0.13235200  0.14215500  1
  C  39  1  0.90997600  0.94308700  0.19123300  1
  C  40  1  0.75651000  0.98032100  0.18845800  1
  C  41  1  0.91057900  0.01853000  0.07438900  1
  C  46  1  0.68434400  0.49698400  0.14922500  1
  C  47  1  0.69330500  0.51158800  0.12925700  1
  C  48  1  0.67065100  0.50681000  0.11304200  1
  C  49  1  0.64696200  0.48930100  0.12259400  1
  C  50  1  0.62068200  0.48178600  0.10970200  1
  C  51  1  0.61804400  0.49214200  0.08706400  1
  C  52  1  0.64253200  0.50979000  0.07780000  1
  C  53  1  0.66874500  0.51724700  0.09065400  1
  C  54  1  0.72050300  0.52904200  0.12830300  1
  C  55  1  0.73844500  0.53218100  0.14794500  1
  C  56  1  0.72962500  0.51806200  0.16861400  1
  C  57  1  0.70232500  0.50009000  0.16891000  1
  C  58  1  0.63065600  0.49290600  0.16273400  1
  C  59  1  0.61873900  0.46847100  0.17539100  1
  C  60  1  0.63283900  0.44133500  0.16842400  1
  C  61  1  0.65421700  0.44822400  0.15150000  1
  C  62  1  0.62891100  0.41102400  0.17617100  1
  C  63  1  0.64701000  0.38744500  0.16673200  1
  C  64  1  0.66942600  0.39376700  0.14988000  1
  C  65  1  0.67250900  0.42457100  0.14211300  1
  C  66  1  0.62160800  0.52344800  0.16749200  1
  C  67  1  0.60066100  0.52936700  0.18532500  1
  C  68  1  0.58832900  0.50414400  0.19757400  1
  C  69  1  0.59727200  0.47370400  0.19271700  1
  C  82  1  0.65404600  0.48170700  0.14643800  1
  C  83  1  0.68724000  0.37007600  0.14085200  1
  C  84  1  0.59272900  0.55914600  0.19138100  1
  C  85  1  0.74605700  0.52269500  0.18853600  1
  C  86  1  0.59227500  0.48442900  0.07428300  1
  C  91  1  0.99656200  0.31837300  0.64916400  1
  C  92  1  0.01096600  0.30934300  0.62914200  1
  C  93  1  0.00615500  0.33202900  0.61295700  1
  C  94  1  0.98881900  0.35580100  0.62258100  1
  C  95  1  0.98137300  0.38213300  0.60972900  1
  C  96  1  0.99166300  0.38475800  0.58707200  1
  C  97  1  0.00914900  0.36019800  0.57774400  1
  C  98  1  0.01653000  0.33392800  0.59055500  1
  C  99  1  0.02828100  0.28206000  0.62812000  1
  C  100  1  0.03142300  0.26406600  0.64773700  1
  C  101  1  0.01744700  0.27291900  0.66845100  1
  C  102  1  0.99961800  0.30031100  0.66881500  1
  C  103  1  0.99271700  0.37193100  0.66280600  1
  C  104  1  0.96844800  0.38358200  0.67576500  1
  C  105  1  0.94126600  0.36942000  0.66897600  1
  C  106  1  0.94790600  0.34849800  0.65167900  1
  C  107  1  0.91118000  0.37271400  0.67735100  1
  C  108  1  0.88753700  0.35449800  0.66812700  1
  C  109  1  0.89365400  0.33296300  0.65067900  1
  C  110  1  0.92414500  0.33031800  0.64230500  1
  C  111  1  0.02330400  0.38099600  0.66739700  1
  C  112  1  0.02944100  0.40163200  0.68538500  1
  C  113  1  0.00437300  0.41367400  0.69795500  1
  C  114  1  0.97389100  0.40471100  0.69327600  1
  C  127  1  0.98134100  0.34870900  0.64644200  1
  C  128  1  0.87002700  0.31509200  0.64197000  1
  C  129  1  0.05928300  0.40947700  0.69129500  1
  C  130  1  0.02210200  0.25645700  0.68835700  1
  C  131  1  0.98405100  0.41058200  0.57432000  1
  C  136  1  0.50532300  0.18408500  0.64934500  1
  C  137  1  0.49082700  0.19309900  0.62934900  1
  C  138  1  0.49566900  0.17047600  0.61312400  1
  C  139  1  0.51311900  0.14675500  0.62269400  1
  C  140  1  0.52066900  0.12049400  0.60979300  1
  C  141  1  0.51039500  0.11790000  0.58713100  1
  C  142  1  0.49281200  0.14242100  0.57784900  1
  C  143  1  0.48532900  0.16862300  0.59070800  1
  C  144  1  0.47352000  0.22038700  0.62834900  1
  C  145  1  0.47039800  0.23835300  0.64798200  1
  C  146  1  0.48442700  0.22949400  0.66867400  1
  C  147  1  0.50229500  0.20212500  0.66900600  1
  C  148  1  0.50940100  0.13039500  0.66282700  1
  C  149  1  0.53380600  0.11847200  0.67551100  1
  C  150  1  0.56095600  0.13259900  0.66859300  1
  C  151  1  0.55410200  0.15399200  0.65167200  1
  C  152  1  0.59122800  0.12876200  0.67644200  1
  C  153  1  0.61481100  0.14692800  0.66708200  1
  C  154  1  0.60854000  0.16929900  0.65019100  1
  C  155  1  0.57776600  0.17233200  0.64234900  1
  C  156  1  0.47885700  0.12130600  0.66753200  1
  C  157  1  0.47290100  0.10025100  0.68529400  1
  C  158  1  0.49811000  0.08789800  0.69754800  1
  C  159  1  0.52855200  0.09692000  0.69277400  1
  C  172  1  0.52063200  0.15380500  0.64655800  1
  C  173  1  0.63224500  0.18722400  0.64128500  1
  C  174  1  0.44310500  0.09208800  0.69122400  1
  C  175  1  0.47984200  0.24598100  0.68857800  1
  C  176  1  0.51812400  0.09214700  0.57434200  1
  C  181  1  0.18444200  0.99632100  0.85316000  1
  C  182  1  0.19314800  0.01066600  0.87328900  1
  C  183  1  0.17004800  0.00605200  0.88920900  1
  C  184  1  0.14639900  0.98887200  0.87929400  1
  C  185  1  0.11941000  0.98220200  0.89161600  1
  C  186  1  0.11598000  0.99292500  0.91411900  1
  C  187  1  0.14056300  0.01003900  0.92381100  1
  C  188  1  0.16748000  0.01671800  0.91150300  1
  C  189  1  0.22043600  0.02795700  0.87454900  1
  C  190  1  0.23876500  0.03110500  0.85508800  1
  C  191  1  0.23019800  0.01724300  0.83427100  1
  C  192  1  0.20279500  0.99944500  0.83366400  1
  C  193  1  0.13105700  0.99272200  0.83897700  1
  C  194  1  0.11953800  0.96849400  0.82591800  1
  C  195  1  0.13346300  0.94126100  0.83285600  1
  C  196  1  0.15409500  0.94783700  0.85035100  1
  C  197  1  0.13017600  0.91117800  0.82447600  1
  C  198  1  0.14815600  0.88748200  0.83387000  1
  C  199  1  0.16943800  0.89354600  0.85149200  1
  C  200  1  0.17203700  0.92402300  0.85989300  1
  C  201  1  0.12200200  0.02331300  0.83442300  1
  C  202  1  0.10134300  0.02947600  0.81645900  1
  C  203  1  0.08941400  0.00444900  0.80378600  1
  C  204  1  0.09844300  0.97396700  0.80839000  1
  C  217  1  0.15396900  0.98128100  0.85554200  1
  C  218  1  0.18716100  0.86989100  0.86031300  1
  C  219  1  0.09330000  0.05932000  0.81068900  1
  C  220  1  0.24694400  0.02191200  0.81448400  1
  C  221  1  0.08889700  0.98679100  0.92596300  1
  C  226  1  0.31824600  0.50570800  0.85311300  1
  C  227  1  0.30951300  0.49127600  0.87320400  1
  C  228  1  0.33248700  0.49598900  0.88920900  1
  C  229  1  0.35613000  0.51323000  0.87935200  1
  C  230  1  0.38301700  0.52004200  0.89175300  1
  C  231  1  0.38642500  0.50926700  0.91424000  1
  C  232  1  0.36190000  0.49199000  0.92385400  1
  C  233  1  0.33504900  0.48523500  0.91148500  1
  C  234  1  0.28220000  0.47402700  0.87441700  1
  C  235  1  0.26394400  0.47089300  0.85491800  1
  C  236  1  0.27253500  0.48485700  0.83414200  1
  C  237  1  0.29992400  0.50268500  0.83359700  1
  C  238  1  0.37175400  0.50967000  0.83913000  1
  C  239  1  0.38366400  0.53409600  0.82646100  1
  C  240  1  0.36965200  0.56124400  0.83349700  1
  C  241  1  0.34847000  0.55438000  0.85055800  1
  C  242  1  0.37359400  0.59156400  0.82577700  1
  C  243  1  0.35567900  0.61517000  0.83536600  1
  C  244  1  0.33345100  0.60887800  0.85235800  1
  C  245  1  0.33037100  0.57806000  0.86010200  1
  C  246  1  0.38092900  0.47914500  0.83448700  1
  C  247  1  0.40198900  0.47321200  0.81673200  1
  C  248  1  0.41421700  0.49840900  0.80439700  1
  C  249  1  0.40512500  0.52884000  0.80913600  1
  C  262  1  0.34862200  0.52089600  0.85560100  1
  C  263  1  0.31581100  0.63264300  0.86151400  1
  C  264  1  0.41034000  0.44343500  0.81094400  1
  C  265  1  0.25583800  0.48022200  0.81432900  1
  C  266  1  0.41344400  0.51551300  0.92613200  1
  C  271  1  0.00603800  0.68439000  0.35308300  1
  C  272  1  0.99180100  0.69315700  0.37323700  1
  C  273  1  0.99645900  0.67008300  0.38917100  1
  C  274  1  0.01359500  0.64641200  0.37924400  1
  C  275  1  0.02033400  0.61945500  0.39158800  1
  C  276  1  0.00967100  0.61605700  0.41410800  1
  C  277  1  0.99257900  0.64065100  0.42380500  1
  C  278  1  0.98586300  0.66755000  0.41148500  1
  C  279  1  0.97456500  0.72048000  0.37450500  1
  C  280  1  0.97139300  0.73879100  0.35503900  1
  C  281  1  0.98520200  0.73019100  0.33421100  1
  C  282  1  0.00296800  0.70276500  0.33359400  1
  C  283  1  0.00969800  0.63098300  0.33895700  1
  C  284  1  0.03391600  0.61945100  0.32589300  1
  C  285  1  0.06113900  0.63345400  0.33277100  1
  C  286  1  0.05457000  0.65411300  0.35025000  1
  C  287  1  0.09121800  0.63016800  0.32438200  1
  C  288  1  0.11491300  0.64818400  0.33374600  1
  C  289  1  0.10885500  0.66948600  0.35135800  1
  C  290  1  0.07838000  0.67208800  0.35976300  1
  C  291  1  0.97912900  0.62174600  0.33453200  1
  C  292  1  0.97295100  0.60091200  0.31667300  1
  C  293  1  0.99798300  0.58895800  0.30401300  1
  C  294  1  0.02844900  0.59816500  0.30849000  1
  C  307  1  0.02113600  0.65395000  0.35547800  1
  C  308  1  0.13251200  0.68720800  0.36017700  1
  C  309  1  0.94311000  0.59240200  0.31115800  1
  C  310  1  0.98052900  0.74693200  0.31442200  1
  C  311  1  0.01583500  0.58899200  0.42596200  1
  C  316  1  0.49671900  0.81817000  0.35311700  1
  C  317  1  0.51112500  0.80943700  0.37321800  1
  C  318  1  0.50648300  0.83246400  0.38919300  1
  C  319  1  0.48923200  0.85609500  0.37933000  1
  C  320  1  0.48251600  0.88303800  0.39169600  1
  C  321  1  0.49331800  0.88647300  0.41417300  1
  C  322  1  0.51057500  0.86194100  0.42380000  1
  C  323  1  0.51728200  0.83506100  0.41145300  1
  C  324  1  0.52846700  0.78217900  0.37442100  1
  C  325  1  0.53161600  0.76391900  0.35492800  1
  C  326  1  0.51762200  0.77247000  0.33415400  1
  C  327  1  0.49976000  0.79983600  0.33360400  1
  C  328  1  0.49280000  0.87165000  0.33908500  1
  C  329  1  0.46838600  0.88351900  0.32638400  1
  C  330  1  0.44122000  0.86959000  0.33346900  1
  C  331  1  0.44806900  0.84843500  0.35055000  1
  C  332  1  0.41090400  0.87354100  0.32574500  1
  C  333  1  0.38728400  0.85566300  0.33535300  1
  C  334  1  0.39356000  0.83345600  0.35236100  1
  C  335  1  0.42437100  0.83038200  0.36011800  1
  C  336  1  0.52333900  0.88073600  0.33438700  1
  C  337  1  0.52927500  0.90171500  0.31658400  1
  C  338  1  0.50408900  0.91393400  0.30423500  1
  C  339  1  0.47364700  0.90492700  0.30902500  1
  C  352  1  0.48155500  0.84856400  0.35558400  1
  C  353  1  0.36978100  0.81583800  0.36152200  1
  C  354  1  0.55905000  0.90982900  0.31068900  1
  C  355  1  0.52227800  0.75577100  0.31434600  1
  C  356  1  0.48711300  0.91351700  0.42604800  1
  C  361  1  0.94226700  0.00381900  0.04284000  1
  C  362  1  0.94980300  0.97724800  0.03044800  1
  C  364  1  0.98767700  0.00426800  0.00846100  1
  C  365  1  0.98097300  0.03192000  0.02034500  1
  C  366  1  0.95812200  0.03123800  0.03743300  1
  C  368  1  0.01025100  0.00188300  0.99102900  1
  C  369  1  0.00694900  0.98306100  0.97154400  1
  C  370  1  0.03125200  0.98235400  0.95557300  1
  C  371  1  0.05841000  0.99973700  0.95872000  1
  C  372  1  0.06035400  0.01785300  0.97834300  1
  C  385  1  0.56048900  0.49901900  0.04276500  1
  C  386  1  0.55287000  0.52553800  0.03033800  1
  C  388  1  0.51493300  0.49839300  0.00848000  1
  C  389  1  0.52171800  0.47079400  0.02040600  1
  C  390  1  0.54463900  0.47156500  0.03744300  1
  C  392  1  0.49229600  0.50068800  0.99108300  1
  C  393  1  0.49549600  0.51946900  0.97156800  1
  C  394  1  0.47115100  0.52007000  0.95563100  1
  C  395  1  0.44404200  0.50262700  0.95883300  1
  C  396  1  0.44220100  0.48455300  0.97848300  1
  C  409  1  0.99876300  0.44227000  0.54277400  1
  C  410  1  0.02533400  0.44980100  0.53037900  1
  C  412  1  0.99832100  0.48770500  0.50841200  1
  C  413  1  0.97067200  0.48100500  0.52030000  1
  C  414  1  0.97135100  0.45814000  0.53737900  1
  C  416  1  0.00070900  0.51029200  0.49098700  1
  C  417  1  0.01953100  0.50700200  0.47150100  1
  C  418  1  0.02023600  0.53131500  0.45553800  1
  C  419  1  0.00285400  0.55846900  0.45869200  1
  C  420  1  0.98473700  0.56040100  0.47831600  1
  C  433  1  0.50355000  0.06039600  0.54280000  1
  C  434  1  0.47703100  0.05278600  0.53037000  1
  C  436  1  0.50418600  0.01489500  0.50847900  1
  C  437  1  0.53178500  0.02167100  0.52040600  1
  C  438  1  0.53100900  0.04456400  0.53746400  1
  C  440  1  0.50189500  0.99228000  0.49106600  1
  C  441  1  0.48311900  0.99550600  0.47155200  1
  C  442  1  0.48251600  0.97117800  0.45559900  1
  C  443  1  0.49995200  0.94406300  0.45878800  1
  C  444  1  0.51801800  0.94219400  0.47844100  1
  C  457  1  0.71094600  0.32166300  0.15128100  1
  C  458  1  0.71790300  0.30455900  0.17075500  1
  C  460  1  0.73782400  0.26222200  0.14904900  1
  C  461  1  0.73179400  0.27860600  0.12875800  1
  C  462  1  0.71809700  0.30824000  0.13021500  1
  C  464  1  0.75146300  0.23232300  0.15016900  1
  C  465  1  0.74357700  0.21006200  0.16680300  1
  C  466  1  0.76059400  0.18226800  0.16769900  1
  C  467  1  0.78434600  0.17604700  0.15221000  1
  C  468  1  0.79084100  0.19860400  0.13578800  1
  C  481  1  0.68084900  0.21071800  0.65149500  1
  C  482  1  0.69810000  0.21757200  0.67091800  1
  C  484  1  0.74026000  0.23764000  0.64909800  1
  C  485  1  0.72372200  0.23171100  0.62885700  1
  C  486  1  0.69410300  0.21799500  0.63039500  1
  C  488  1  0.77015900  0.25129500  0.65014400  1
  C  489  1  0.79251700  0.24338900  0.66666667  1
  C  490  1  0.82029800  0.26043600  0.66754700  1
  C  491  1  0.82640800  0.28423500  0.65207700  1
  C  492  1  0.80376200  0.29074700  0.63572400  1
  C  505  1  0.29182400  0.68087400  0.85113800  1
  C  506  1  0.28474700  0.69796500  0.83168100  1
  C  508  1  0.26484500  0.74025300  0.85343900  1
  C  509  1  0.27096900  0.72387300  0.87371400  1
  C  510  1  0.28472100  0.69426900  0.87222500  1
  C  512  1  0.25117500  0.77013100  0.85234900  1
  C  513  1  0.25907900  0.79243200  0.83575100  1
  C  514  1  0.24202800  0.82020100  0.83486300  1
  C  515  1  0.21822200  0.82635100  0.85032200  1
  C  516  1  0.21171800  0.80375500  0.86671500  1
  C  529  1  0.32155700  0.79184000  0.35112700  1
  C  530  1  0.30448300  0.78477400  0.33165900  1
  C  532  1  0.26217400  0.76486500  0.35339000  1
  C  533  1  0.27853500  0.77097800  0.37367500  1
  C  534  1  0.30814100  0.78472800  0.37220300  1
  C  536  1  0.23229300  0.75119800  0.35228000  1
  C  537  1  0.21001100  0.75910900  0.33567200  1
  C  538  1  0.18224200  0.74205800  0.33476100  1
  C  539  1  0.17607800  0.71824200  0.35020800  1
  C  540  1  0.19865300  0.71173100  0.36661400  1
  C  553  1  0.59240700  0.90996900  0.27844400  1
  C  554  1  0.61393400  0.93294300  0.28430200  1
  C  556  1  0.64165700  0.92615300  0.24959600  1
  C  557  1  0.62085700  0.90259900  0.24291400  1
  C  558  1  0.59631600  0.89494400  0.25759500  1
  C  560  1  0.66594100  0.93707100  0.23560500  1
  C  561  1  0.69578400  0.94489000  0.24355800  1
  C  562  1  0.71787100  0.95554800  0.22775700  1
  C  563  1  0.71052000  0.95867200  0.20465400  1
  C  564  1  0.68057500  0.95062700  0.19784400  1
  C  577  1  0.90978700  0.59294300  0.27893800  1
  C  578  1  0.88829500  0.56987500  0.28466800  1
  C  580  1  0.86074600  0.57674300  0.24989800  1
  C  581  1  0.88153900  0.60036100  0.24332400  1
  C  582  1  0.90595600  0.60804000  0.25810900  1
  C  584  1  0.83651100  0.56586500  0.23584400  1
  C  585  1  0.80665600  0.55798300  0.24374900  1
  C  586  1  0.78461500  0.54735600  0.22790600  1
  C  587  1  0.79201500  0.54432100  0.20480400  1
  C  588  1  0.82196200  0.55243500  0.19804100  1
  C  601  1  0.09310300  0.09276900  0.77848200  1
  C  602  1  0.07007000  0.11422200  0.78435400  1
  C  604  1  0.07660200  0.14184900  0.74957900  1
  C  605  1  0.10020200  0.12111000  0.74287800  1
  C  606  1  0.10801900  0.09665900  0.75759100  1
  C  608  1  0.06556000  0.16606000  0.73557400  1
  C  609  1  0.05771000  0.19591100  0.74349700  1
  C  610  1  0.04697800  0.21794000  0.72767900  1
  C  611  1  0.04381000  0.21052400  0.70459100  1
  C  612  1  0.05187400  0.18057100  0.69781100  1
  C  625  1  0.40999900  0.41014000  0.77871100  1
  C  626  1  0.43299100  0.38858700  0.78448400  1
  C  628  1  0.42596400  0.36089100  0.74979400  1
  C  629  1  0.40239700  0.38172400  0.74319200  1
  C  630  1  0.39484700  0.40625800  0.75791000  1
  C  632  1  0.43676900  0.33658700  0.73577600  1
  C  633  1  0.44461600  0.30674400  0.74372300  1
  C  634  1  0.45520200  0.28464300  0.72790900  1
  C  635  1  0.45823000  0.29197800  0.70479700  1
  C  636  1  0.45014800  0.32191600  0.69799000  1
  C  649  1  0.41018100  0.09229000  0.72370400  1
  C  650  1  0.38851100  0.06936200  0.71803800  1
  C  652  1  0.36122300  0.07632000  0.75292800  1
  C  653  1  0.38219800  0.09981700  0.75942900  1
  C  654  1  0.40657600  0.10736400  0.74456500  1
  C  656  1  0.33700400  0.06555600  0.76707100  1
  C  657  1  0.30711700  0.05764200  0.75924700  1
  C  658  1  0.28512400  0.04708600  0.77515600  1
  C  659  1  0.29257700  0.04415000  0.79825800  1
  C  660  1  0.32253600  0.05233900  0.80494800  1
  C  673  1  0.09241900  0.40967700  0.72374800  1
  C  674  1  0.11406900  0.43257200  0.71797700  1
  C  676  1  0.14138200  0.42588100  0.75288800  1
  C  677  1  0.12042000  0.40242400  0.75949200  1
  C  678  1  0.09603800  0.39476200  0.74466700  1
  C  680  1  0.16560600  0.43673700  0.76698500  1
  C  681  1  0.19550500  0.44455800  0.75913600  1
  C  682  1  0.21752400  0.45514500  0.77501600  1
  C  683  1  0.21008000  0.45820000  0.79811100  1
  C  684  1  0.18010000  0.45012800  0.80482300  1
  C  697  1  0.90979400  0.91004300  0.22365700  1
  C  698  1  0.93275100  0.88841900  0.21796200  1
  C  700  1  0.92598500  0.86117000  0.25289100  1
  C  701  1  0.90247000  0.88210800  0.25942500  1
  C  702  1  0.89480800  0.90643700  0.24455200  1
  C  704  1  0.93682900  0.83697900  0.26702400  1
  C  705  1  0.94473500  0.80708900  0.25920100  1
  C  706  1  0.95533100  0.78511000  0.27510600  1
  C  707  1  0.95831300  0.79257700  0.29820100  1
  C  708  1  0.95014400  0.82254000  0.30489000  1
  C  721  1  0.59256800  0.59217200  0.22384800  1
  C  722  1  0.56970300  0.61386000  0.21808700  1
  C  724  1  0.57656200  0.64125000  0.25294500  1
  C  725  1  0.60000700  0.62026600  0.25953300  1
  C  726  1  0.60756300  0.59582100  0.24473400  1
  C  728  1  0.56576800  0.66550800  0.26703600  1
  C  729  1  0.55792800  0.69539500  0.25917200  1
  C  730  1  0.54736000  0.71743100  0.27504500  1
  C  731  1  0.54434200  0.71002000  0.29814700  1
  C  732  1  0.55244400  0.68005400  0.30487600  1
  C  745  1  0.81848800  0.00580700  0.45286600  1
  C  746  1  0.80946000  0.99141200  0.43283900  1
  C  747  1  0.83210200  0.99629800  0.41663600  1
  C  748  1  0.85587400  0.01363100  0.42626200  1
  C  749  1  0.88218400  0.02112200  0.41339600  1
  C  750  1  0.88477900  0.01088600  0.39072400  1
  C  751  1  0.86021400  0.99340800  0.38139500  1
  C  752  1  0.83396900  0.98598100  0.39421900  1
  C  753  1  0.78211500  0.97419500  0.43178700  1
  C  754  1  0.76412400  0.97103800  0.45140500  1
  C  755  1  0.77300000  0.98496100  0.47213200  1
  C  756  1  0.80041700  0.00274900  0.47251300  1
  C  757  1  0.87208300  0.00968100  0.46646100  1
  C  758  1  0.88366900  0.03393200  0.47946800  1
  C  759  1  0.86946600  0.06111200  0.47271400  1
  C  760  1  0.84857400  0.05448500  0.45539700  1
  C  761  1  0.87272800  0.09118600  0.48111900  1
  C  762  1  0.85449500  0.11482700  0.47191000  1
  C  763  1  0.83298200  0.10872300  0.45444600  1
  C  764  1  0.83036200  0.07824200  0.44605000  1
  C  765  1  0.88118000  0.97909600  0.47102700  1
  C  766  1  0.90187900  0.97294400  0.48898000  1
  C  767  1  0.91390400  0.99801500  0.50155800  1
  C  768  1  0.90486000  0.02849100  0.49693900  1
  C  781  1  0.84880800  0.02105700  0.45013700  1
  C  782  1  0.81512200  0.13235200  0.44572600  1
  C  783  1  0.90997600  0.94308700  0.49480400  1
  C  784  1  0.75651000  0.98032100  0.49202900  1
  C  785  1  0.91057900  0.01853000  0.37796000  1
  C  790  1  0.68434400  0.49698400  0.45279600  1
  C  791  1  0.69330500  0.51158800  0.43282800  1
  C  792  1  0.67065100  0.50681000  0.41661300  1
  C  793  1  0.64696200  0.48930100  0.42616500  1
  C  794  1  0.62068200  0.48178600  0.41327300  1
  C  795  1  0.61804400  0.49214200  0.39063500  1
  C  796  1  0.64253200  0.50979000  0.38137100  1
  C  797  1  0.66874500  0.51724700  0.39422500  1
  C  798  1  0.72050300  0.52904200  0.43187400  1
  C  799  1  0.73844500  0.53218100  0.45151600  1
  C  800  1  0.72962500  0.51806200  0.47218500  1
  C  801  1  0.70232500  0.50009000  0.47248100  1
  C  802  1  0.63065600  0.49290600  0.46630500  1
  C  803  1  0.61873900  0.46847100  0.47896200  1
  C  804  1  0.63283900  0.44133500  0.47199500  1
  C  805  1  0.65421700  0.44822400  0.45507100  1
  C  806  1  0.62891100  0.41102400  0.47974200  1
  C  807  1  0.64701000  0.38744500  0.47030300  1
  C  808  1  0.66942600  0.39376700  0.45345100  1
  C  809  1  0.67250900  0.42457100  0.44568400  1
  C  810  1  0.62160800  0.52344800  0.47106300  1
  C  811  1  0.60066100  0.52936700  0.48889600  1
  C  812  1  0.58832900  0.50414400  0.50114500  1
  C  813  1  0.59727200  0.47370400  0.49628800  1
  C  826  1  0.65404600  0.48170700  0.45000900  1
  C  827  1  0.68724000  0.37007600  0.44442300  1
  C  828  1  0.59272900  0.55914600  0.49495200  1
  C  829  1  0.74605700  0.52269500  0.49210700  1
  C  830  1  0.59227500  0.48442900  0.37785400  1
  C  835  1  0.99656200  0.31837300  0.95273500  1
  C  836  1  0.01096600  0.30934300  0.93271300  1
  C  837  1  0.00615500  0.33202900  0.91652800  1
  C  838  1  0.98881900  0.35580100  0.92615200  1
  C  839  1  0.98137300  0.38213300  0.91330000  1
  C  840  1  0.99166300  0.38475800  0.89064300  1
  C  841  1  0.00914900  0.36019800  0.88131500  1
  C  842  1  0.01653000  0.33392800  0.89412600  1
  C  843  1  0.02828100  0.28206000  0.93169100  1
  C  844  1  0.03142300  0.26406600  0.95130800  1
  C  845  1  0.01744700  0.27291900  0.97202200  1
  C  846  1  0.99961800  0.30031100  0.97238600  1
  C  847  1  0.99271700  0.37193100  0.96637700  1
  C  848  1  0.96844800  0.38358200  0.97933600  1
  C  849  1  0.94126600  0.36942000  0.97254700  1
  C  850  1  0.94790600  0.34849800  0.95525000  1
  C  851  1  0.91118000  0.37271400  0.98092200  1
  C  852  1  0.88753700  0.35449800  0.97169800  1
  C  853  1  0.89365400  0.33296300  0.95425000  1
  C  854  1  0.92414500  0.33031800  0.94587600  1
  C  855  1  0.02330400  0.38099600  0.97096800  1
  C  856  1  0.02944100  0.40163200  0.98895600  1
  C  857  1  0.00437300  0.41367400  0.00152601  1
  C  858  1  0.97389100  0.40471100  0.99684700  1
  C  871  1  0.98134100  0.34870900  0.95001300  1
  C  872  1  0.87002700  0.31509200  0.94554100  1
  C  873  1  0.05928300  0.40947700  0.99486600  1
  C  874  1  0.02210200  0.25645700  0.99192800  1
  C  875  1  0.98405100  0.41058200  0.87789100  1
  C  880  1  0.50532300  0.18408500  0.95291600  1
  C  881  1  0.49082700  0.19309900  0.93292000  1
  C  882  1  0.49566900  0.17047600  0.91669500  1
  C  883  1  0.51311900  0.14675500  0.92626500  1
  C  884  1  0.52066900  0.12049400  0.91336400  1
  C  885  1  0.51039500  0.11790000  0.89070200  1
  C  886  1  0.49281200  0.14242100  0.88142000  1
  C  887  1  0.48532900  0.16862300  0.89427900  1
  C  888  1  0.47352000  0.22038700  0.93192000  1
  C  889  1  0.47039800  0.23835300  0.95155300  1
  C  890  1  0.48442700  0.22949400  0.97224500  1
  C  891  1  0.50229500  0.20212500  0.97257700  1
  C  892  1  0.50940100  0.13039500  0.96639800  1
  C  893  1  0.53380600  0.11847200  0.97908200  1
  C  894  1  0.56095600  0.13259900  0.97216400  1
  C  895  1  0.55410200  0.15399200  0.95524300  1
  C  896  1  0.59122800  0.12876200  0.98001300  1
  C  897  1  0.61481100  0.14692800  0.97065300  1
  C  898  1  0.60854000  0.16929900  0.95376200  1
  C  899  1  0.57776600  0.17233200  0.94592000  1
  C  900  1  0.47885700  0.12130600  0.97110300  1
  C  901  1  0.47290100  0.10025100  0.98886500  1
  C  902  1  0.49811000  0.08789800  0.00111901  1
  C  903  1  0.52855200  0.09692000  0.99634500  1
  C  916  1  0.52063200  0.15380500  0.95012900  1
  C  917  1  0.63224500  0.18722400  0.94485600  1
  C  918  1  0.44310500  0.09208800  0.99479500  1
  C  919  1  0.47984200  0.24598100  0.99214900  1
  C  920  1  0.51812400  0.09214700  0.87791300  1
  C  925  1  0.18444200  0.99632100  0.15673100  1
  C  926  1  0.19314800  0.01066600  0.17686000  1
  C  927  1  0.17004800  0.00605200  0.19278000  1
  C  928  1  0.14639900  0.98887200  0.18286500  1
  C  929  1  0.11941000  0.98220200  0.19518700  1
  C  930  1  0.11598000  0.99292500  0.21769000  1
  C  931  1  0.14056300  0.01003900  0.22738200  1
  C  932  1  0.16748000  0.01671800  0.21507400  1
  C  933  1  0.22043600  0.02795700  0.17812000  1
  C  934  1  0.23876500  0.03110500  0.15865900  1
  C  935  1  0.23019800  0.01724300  0.13784200  1
  C  936  1  0.20279500  0.99944500  0.13723500  1
  C  937  1  0.13105700  0.99272200  0.14254800  1
  C  938  1  0.11953800  0.96849400  0.12948900  1
  C  939  1  0.13346300  0.94126100  0.13642700  1
  C  940  1  0.15409500  0.94783700  0.15392200  1
  C  941  1  0.13017600  0.91117800  0.12804700  1
  C  942  1  0.14815600  0.88748200  0.13744100  1
  C  943  1  0.16943800  0.89354600  0.15506300  1
  C  944  1  0.17203700  0.92402300  0.16346400  1
  C  945  1  0.12200200  0.02331300  0.13799400  1
  C  946  1  0.10134300  0.02947600  0.12003000  1
  C  947  1  0.08941400  0.00444900  0.10735700  1
  C  948  1  0.09844300  0.97396700  0.11196100  1
  C  961  1  0.15396900  0.98128100  0.15911300  1
  C  962  1  0.18716100  0.86989100  0.16388400  1
  C  963  1  0.09330000  0.05932000  0.11426000  1
  C  964  1  0.24694400  0.02191200  0.11805500  1
  C  965  1  0.08889700  0.98679100  0.22953400  1
  C  970  1  0.31824600  0.50570800  0.15668400  1
  C  971  1  0.30951300  0.49127600  0.17677500  1
  C  972  1  0.33248700  0.49598900  0.19278000  1
  C  973  1  0.35613000  0.51323000  0.18292300  1
  C  974  1  0.38301700  0.52004200  0.19532400  1
  C  975  1  0.38642500  0.50926700  0.21781100  1
  C  976  1  0.36190000  0.49199000  0.22742500  1
  C  977  1  0.33504900  0.48523500  0.21505600  1
  C  978  1  0.28220000  0.47402700  0.17798800  1
  C  979  1  0.26394400  0.47089300  0.15848900  1
  C  980  1  0.27253500  0.48485700  0.13771300  1
  C  981  1  0.29992400  0.50268500  0.13716800  1
  C  982  1  0.37175400  0.50967000  0.14270100  1
  C  983  1  0.38366400  0.53409600  0.13003200  1
  C  984  1  0.36965200  0.56124400  0.13706800  1
  C  985  1  0.34847000  0.55438000  0.15412900  1
  C  986  1  0.37359400  0.59156400  0.12934800  1
  C  987  1  0.35567900  0.61517000  0.13893700  1
  C  988  1  0.33345100  0.60887800  0.15592900  1
  C  989  1  0.33037100  0.57806000  0.16367300  1
  C  990  1  0.38092900  0.47914500  0.13805800  1
  C  991  1  0.40198900  0.47321200  0.12030300  1
  C  992  1  0.41421700  0.49840900  0.10796800  1
  C  993  1  0.40512500  0.52884000  0.11270700  1
  C  1006  1  0.34862200  0.52089600  0.15917200  1
  C  1007  1  0.31581100  0.63264300  0.16508500  1
  C  1008  1  0.41034000  0.44343500  0.11451500  1
  C  1009  1  0.25583800  0.48022200  0.11790000  1
  C  1010  1  0.41344400  0.51551300  0.22970300  1
  C  1015  1  0.00603800  0.68439000  0.65665400  1
  C  1016  1  0.99180100  0.69315700  0.67680800  1
  C  1017  1  0.99645900  0.67008300  0.69274200  1
  C  1018  1  0.01359500  0.64641200  0.68281500  1
  C  1019  1  0.02033400  0.61945500  0.69515900  1
  C  1020  1  0.00967100  0.61605700  0.71767900  1
  C  1021  1  0.99257900  0.64065100  0.72737600  1
  C  1022  1  0.98586300  0.66755000  0.71505600  1
  C  1023  1  0.97456500  0.72048000  0.67807600  1
  C  1024  1  0.97139300  0.73879100  0.65861000  1
  C  1025  1  0.98520200  0.73019100  0.63778200  1
  C  1026  1  0.00296800  0.70276500  0.63716500  1
  C  1027  1  0.00969800  0.63098300  0.64252800  1
  C  1028  1  0.03391600  0.61945100  0.62946400  1
  C  1029  1  0.06113900  0.63345400  0.63634200  1
  C  1030  1  0.05457000  0.65411300  0.65382100  1
  C  1031  1  0.09121800  0.63016800  0.62795300  1
  C  1032  1  0.11491300  0.64818400  0.63731700  1
  C  1033  1  0.10885500  0.66948600  0.65492900  1
  C  1034  1  0.07838000  0.67208800  0.66333400  1
  C  1035  1  0.97912900  0.62174600  0.63810300  1
  C  1036  1  0.97295100  0.60091200  0.62024400  1
  C  1037  1  0.99798300  0.58895800  0.60758400  1
  C  1038  1  0.02844900  0.59816500  0.61206100  1
  C  1051  1  0.02113600  0.65395000  0.65904900  1
  C  1052  1  0.13251200  0.68720800  0.66374800  1
  C  1053  1  0.94311000  0.59240200  0.61472900  1
  C  1054  1  0.98052900  0.74693200  0.61799300  1
  C  1055  1  0.01583500  0.58899200  0.72953300  1
  C  1060  1  0.49671900  0.81817000  0.65668800  1
  C  1061  1  0.51112500  0.80943700  0.67678900  1
  C  1062  1  0.50648300  0.83246400  0.69276400  1
  C  1063  1  0.48923200  0.85609500  0.68290100  1
  C  1064  1  0.48251600  0.88303800  0.69526700  1
  C  1065  1  0.49331800  0.88647300  0.71774400  1
  C  1066  1  0.51057500  0.86194100  0.72737100  1
  C  1067  1  0.51728200  0.83506100  0.71502400  1
  C  1068  1  0.52846700  0.78217900  0.67799200  1
  C  1069  1  0.53161600  0.76391900  0.65849900  1
  C  1070  1  0.51762200  0.77247000  0.63772500  1
  C  1071  1  0.49976000  0.79983600  0.63717500  1
  C  1072  1  0.49280000  0.87165000  0.64265600  1
  C  1073  1  0.46838600  0.88351900  0.62995500  1
  C  1074  1  0.44122000  0.86959000  0.63704000  1
  C  1075  1  0.44806900  0.84843500  0.65412100  1
  C  1076  1  0.41090400  0.87354100  0.62931600  1
  C  1077  1  0.38728400  0.85566300  0.63892400  1
  C  1078  1  0.39356000  0.83345600  0.65593200  1
  C  1079  1  0.42437100  0.83038200  0.66368900  1
  C  1080  1  0.52333900  0.88073600  0.63795800  1
  C  1081  1  0.52927500  0.90171500  0.62015500  1
  C  1082  1  0.50408900  0.91393400  0.60780600  1
  C  1083  1  0.47364700  0.90492700  0.61259600  1
  C  1096  1  0.48155500  0.84856400  0.65915500  1
  C  1097  1  0.36978100  0.81583800  0.66509300  1
  C  1098  1  0.55905000  0.90982900  0.61426000  1
  C  1099  1  0.52227800  0.75577100  0.61791700  1
  C  1100  1  0.48711300  0.91351700  0.72961900  1
  C  1105  1  0.94226700  0.00381900  0.34641100  1
  C  1106  1  0.94980300  0.97724800  0.33401900  1
  C  1108  1  0.98767700  0.00426800  0.31203200  1
  C  1109  1  0.98097300  0.03192000  0.32391600  1
  C  1110  1  0.95812200  0.03123800  0.34100400  1
  C  1112  1  0.01025100  0.00188300  0.29460000  1
  C  1113  1  0.00694900  0.98306100  0.27511500  1
  C  1114  1  0.03125200  0.98235400  0.25914400  1
  C  1115  1  0.05841000  0.99973700  0.26229100  1
  C  1116  1  0.06035400  0.01785300  0.28191400  1
  C  1129  1  0.56048900  0.49901900  0.34633600  1
  C  1130  1  0.55287000  0.52553800  0.33390900  1
  C  1132  1  0.51493300  0.49839300  0.31205100  1
  C  1133  1  0.52171800  0.47079400  0.32397700  1
  C  1134  1  0.54463900  0.47156500  0.34101400  1
  C  1136  1  0.49229600  0.50068800  0.29465400  1
  C  1137  1  0.49549600  0.51946900  0.27513900  1
  C  1138  1  0.47115100  0.52007000  0.25920200  1
  C  1139  1  0.44404200  0.50262700  0.26240400  1
  C  1140  1  0.44220100  0.48455300  0.28205400  1
  C  1153  1  0.99876300  0.44227000  0.84634500  1
  C  1154  1  0.02533400  0.44980100  0.83395000  1
  C  1156  1  0.99832100  0.48770500  0.81198300  1
  C  1157  1  0.97067200  0.48100500  0.82387100  1
  C  1158  1  0.97135100  0.45814000  0.84095000  1
  C  1160  1  0.00070900  0.51029200  0.79455800  1
  C  1161  1  0.01953100  0.50700200  0.77507200  1
  C  1162  1  0.02023600  0.53131500  0.75910900  1
  C  1163  1  0.00285400  0.55846900  0.76226300  1
  C  1164  1  0.98473700  0.56040100  0.78188700  1
  C  1177  1  0.50355000  0.06039600  0.84637100  1
  C  1178  1  0.47703100  0.05278600  0.83394100  1
  C  1180  1  0.50418600  0.01489500  0.81205000  1
  C  1181  1  0.53178500  0.02167100  0.82397700  1
  C  1182  1  0.53100900  0.04456400  0.84103500  1
  C  1184  1  0.50189500  0.99228000  0.79463700  1
  C  1185  1  0.48311900  0.99550600  0.77512300  1
  C  1186  1  0.48251600  0.97117800  0.75917000  1
  C  1187  1  0.49995200  0.94406300  0.76235900  1
  C  1188  1  0.51801800  0.94219400  0.78201200  1
  C  1201  1  0.71094600  0.32166300  0.45485200  1
  C  1202  1  0.71790300  0.30455900  0.47432600  1
  C  1204  1  0.73782400  0.26222200  0.45262000  1
  C  1205  1  0.73179400  0.27860600  0.43232900  1
  C  1206  1  0.71809700  0.30824000  0.43378600  1
  C  1208  1  0.75146300  0.23232300  0.45374000  1
  C  1209  1  0.74357700  0.21006200  0.47037400  1
  C  1210  1  0.76059400  0.18226800  0.47127000  1
  C  1211  1  0.78434600  0.17604700  0.45578100  1
  C  1212  1  0.79084100  0.19860400  0.43935900  1
  C  1225  1  0.68084900  0.21071800  0.95506600  1
  C  1226  1  0.69810000  0.21757200  0.97448900  1
  C  1228  1  0.74026000  0.23764000  0.95266900  1
  C  1229  1  0.72372200  0.23171100  0.93242800  1
  C  1230  1  0.69410300  0.21799500  0.93396600  1
  C  1232  1  0.77015900  0.25129500  0.95371500  1
  C  1233  1  0.79251700  0.24338900  0.97027500  1
  C  1234  1  0.82029800  0.26043600  0.97111800  1
  C  1235  1  0.82640800  0.28423500  0.95564800  1
  C  1236  1  0.80376200  0.29074700  0.93929500  1
  C  1249  1  0.29182400  0.68087400  0.15470900  1
  C  1250  1  0.28474700  0.69796500  0.13525200  1
  C  1252  1  0.26484500  0.74025300  0.15701000  1
  C  1253  1  0.27096900  0.72387300  0.17728500  1
  C  1254  1  0.28472100  0.69426900  0.17579600  1
  C  1256  1  0.25117500  0.77013100  0.15592000  1
  C  1257  1  0.25907900  0.79243200  0.13932200  1
  C  1258  1  0.24202800  0.82020100  0.13843400  1
  C  1259  1  0.21822200  0.82635100  0.15389300  1
  C  1260  1  0.21171800  0.80375500  0.17028600  1
  C  1273  1  0.32155700  0.79184000  0.65469800  1
  C  1274  1  0.30448300  0.78477400  0.63523000  1
  C  1276  1  0.26217400  0.76486500  0.65696100  1
  C  1277  1  0.27853500  0.77097800  0.67724600  1
  C  1278  1  0.30814100  0.78472800  0.67577400  1
  C  1280  1  0.23229300  0.75119800  0.65585100  1
  C  1281  1  0.21001100  0.75910900  0.63924300  1
  C  1282  1  0.18224200  0.74205800  0.63833200  1
  C  1283  1  0.17607800  0.71824200  0.65377900  1
  C  1284  1  0.19865300  0.71173100  0.67018500  1
  C  1297  1  0.59240700  0.90996900  0.58201500  1
  C  1298  1  0.61393400  0.93294300  0.58787300  1
  C  1300  1  0.64165700  0.92615300  0.55316700  1
  C  1301  1  0.62085700  0.90259900  0.54648500  1
  C  1302  1  0.59631600  0.89494400  0.56116600  1
  C  1304  1  0.66594100  0.93707100  0.53917600  1
  C  1305  1  0.69578400  0.94489000  0.54712900  1
  C  1306  1  0.71787100  0.95554800  0.53132800  1
  C  1307  1  0.71052000  0.95867200  0.50822500  1
  C  1308  1  0.68057500  0.95062700  0.50141500  1
  C  1321  1  0.90978700  0.59294300  0.58250900  1
  C  1322  1  0.88829500  0.56987500  0.58823900  1
  C  1324  1  0.86074600  0.57674300  0.55346900  1
  C  1325  1  0.88153900  0.60036100  0.54689500  1
  C  1326  1  0.90595600  0.60804000  0.56168000  1
  C  1328  1  0.83651100  0.56586500  0.53941500  1
  C  1329  1  0.80665600  0.55798300  0.54732000  1
  C  1330  1  0.78461500  0.54735600  0.53147700  1
  C  1331  1  0.79201500  0.54432100  0.50837500  1
  C  1332  1  0.82196200  0.55243500  0.50161200  1
  C  1345  1  0.09310300  0.09276900  0.08205300  1
  C  1346  1  0.07007000  0.11422200  0.08792500  1
  C  1348  1  0.07660200  0.14184900  0.05315000  1
  C  1349  1  0.10020200  0.12111000  0.04644900  1
  C  1350  1  0.10801900  0.09665900  0.06116200  1
  C  1352  1  0.06556000  0.16606000  0.03914500  1
  C  1353  1  0.05771000  0.19591100  0.04706800  1
  C  1354  1  0.04697800  0.21794000  0.03125000  1
  C  1355  1  0.04381000  0.21052400  0.00816201  1
  C  1356  1  0.05187400  0.18057100  0.00138201  1
  C  1369  1  0.40999900  0.41014000  0.08228200  1
  C  1370  1  0.43299100  0.38858700  0.08805500  1
  C  1372  1  0.42596400  0.36089100  0.05336500  1
  C  1373  1  0.40239700  0.38172400  0.04676300  1
  C  1374  1  0.39484700  0.40625800  0.06148100  1
  C  1376  1  0.43676900  0.33658700  0.03934700  1
  C  1377  1  0.44461600  0.30674400  0.04729400  1
  C  1378  1  0.45520200  0.28464300  0.03148000  1
  C  1379  1  0.45823000  0.29197800  0.00836801  1
  C  1380  1  0.45014800  0.32191600  0.00156101  1
  C  1393  1  0.41018100  0.09229000  0.02727500  1
  C  1394  1  0.38851100  0.06936200  0.02160900  1
  C  1396  1  0.36122300  0.07632000  0.05649900  1
  C  1397  1  0.38219800  0.09981700  0.06300000  1
  C  1398  1  0.40657600  0.10736400  0.04813600  1
  C  1400  1  0.33700400  0.06555600  0.07064200  1
  C  1401  1  0.30711700  0.05764200  0.06281800  1
  C  1402  1  0.28512400  0.04708600  0.07872700  1
  C  1403  1  0.29257700  0.04415000  0.10182900  1
  C  1404  1  0.32253600  0.05233900  0.10851900  1
  C  1417  1  0.09241900  0.40967700  0.02731900  1
  C  1418  1  0.11406900  0.43257200  0.02154800  1
  C  1420  1  0.14138200  0.42588100  0.05645900  1
  C  1421  1  0.12042000  0.40242400  0.06306300  1
  C  1422  1  0.09603800  0.39476200  0.04823800  1
  C  1424  1  0.16560600  0.43673700  0.07055600  1
  C  1425  1  0.19550500  0.44455800  0.06270700  1
  C  1426  1  0.21752400  0.45514500  0.07858700  1
  C  1427  1  0.21008000  0.45820000  0.10168200  1
  C  1428  1  0.18010000  0.45012800  0.10839400  1
  C  1441  1  0.90979400  0.91004300  0.52722800  1
  C  1442  1  0.93275100  0.88841900  0.52153300  1
  C  1444  1  0.92598500  0.86117000  0.55646200  1
  C  1445  1  0.90247000  0.88210800  0.56299600  1
  C  1446  1  0.89480800  0.90643700  0.54812300  1
  C  1448  1  0.93682900  0.83697900  0.57059500  1
  C  1449  1  0.94473500  0.80708900  0.56277200  1
  C  1450  1  0.95533100  0.78511000  0.57867700  1
  C  1451  1  0.95831300  0.79257700  0.60177200  1
  C  1452  1  0.95014400  0.82254000  0.60846100  1
  C  1465  1  0.59256800  0.59217200  0.52741900  1
  C  1466  1  0.56970300  0.61386000  0.52165800  1
  C  1468  1  0.57656200  0.64125000  0.55651600  1
  C  1469  1  0.60000700  0.62026600  0.56310400  1
  C  1470  1  0.60756300  0.59582100  0.54830500  1
  C  1472  1  0.56576800  0.66550800  0.57060700  1
  C  1473  1  0.55792800  0.69539500  0.56274300  1
  C  1474  1  0.54736000  0.71743100  0.57861600  1
  C  1475  1  0.54434200  0.71002000  0.60171800  1
  C  1476  1  0.55244400  0.68005400  0.60844700  1
  N  363  1  0.97175200  0.97845400  0.01424100  1
  N  373  1  0.03685100  0.01814300  0.99336600  1
  N  377  1  0.97943500  0.96635500  0.96782600  1
  N  378  1  0.99580300  0.05978000  0.01440700  1
  N  383  1  0.08207300  0.00072100  0.94446300  1
  N  384  1  0.91942300  0.00176600  0.05770500  1
  N  387  1  0.53085700  0.52424400  0.01417900  1
  N  397  1  0.46574300  0.48436200  0.99347400  1
  N  401  1  0.52295900  0.53623300  0.96778400  1
  N  402  1  0.50688900  0.44289800  0.01456200  1
  N  407  1  0.42036200  0.50152200  0.94458900  1
  N  408  1  0.58336100  0.50116700  0.05760500  1
  N  411  1  0.02412800  0.47176100  0.51418000  1
  N  421  1  0.98444700  0.53688900  0.49333100  1
  N  425  1  0.03623600  0.47948800  0.46777200  1
  N  426  1  0.94281500  0.49585100  0.51437700  1
  N  431  1  0.00186300  0.58213600  0.44443800  1
  N  432  1  0.00081300  0.41941400  0.55763100  1
  N  435  1  0.47833000  0.03079900  0.51419300  1
  N  445  1  0.51821200  0.96572200  0.49344400  1
  N  449  1  0.46636000  0.02297600  0.46778200  1
  N  450  1  0.55968500  0.00686200  0.51454600  1
  N  455  1  0.50104100  0.92038800  0.44454100  1
  N  456  1  0.50139500  0.08324800  0.55765600  1
  N  459  1  0.73074400  0.27629000  0.16889200  1
  N  469  1  0.77472900  0.22538400  0.13560600  1
  N  473  1  0.71885400  0.21536500  0.18187300  1
  N  474  1  0.73825400  0.26488200  0.10764700  1
  N  479  1  0.80152600  0.15120300  0.15557300  1
  N  480  1  0.69686200  0.34852100  0.15425900  1
  N  483  1  0.72634400  0.23044200  0.66897600  1
  N  493  1  0.77699900  0.27460700  0.63559600  1
  N  497  1  0.78732500  0.21862400  0.68175900  1
  N  498  1  0.73728700  0.23828400  0.60771000  1
  N  503  1  0.85124000  0.30144600  0.65540600  1
  N  504  1  0.65403500  0.19659500  0.65455300  1
  N  507  1  0.27186900  0.72621000  0.83357700  1
  N  517  1  0.22786700  0.77699900  0.86689200  1
  N  521  1  0.28384600  0.78718700  0.82070900  1
  N  522  1  0.26454800  0.73758200  0.89483700  1
  N  527  1  0.20103700  0.85118200  0.84694600  1
  N  528  1  0.30595200  0.65405800  0.84811600  1
  N  531  1  0.27623500  0.77189700  0.33353700  1
  N  541  1  0.22540900  0.72788000  0.36681300  1
  N  545  1  0.21527200  0.78388500  0.32064000  1
  N  546  1  0.26480600  0.76454800  0.39479000  1
  N  551  1  0.15124700  0.70105900  0.34681400  1
  N  552  1  0.34837800  0.80596500  0.34812000  1
  N  555  1  0.63707800  0.94012100  0.26988100  1
  N  565  1  0.65992200  0.94050400  0.21322800  1
  N  569  1  0.70342400  0.94055400  0.26653700  1
  N  570  1  0.62513300  0.88672000  0.22229800  1
  N  575  1  0.73023300  0.96670300  0.18859300  1
  N  576  1  0.56776400  0.90261500  0.29053100  1
  N  579  1  0.86524300  0.56270800  0.27016600  1
  N  589  1  0.84257800  0.56252600  0.21346800  1
  N  593  1  0.79895900  0.56222200  0.26672700  1
  N  594  1  0.87736000  0.61628200  0.22271500  1
  N  599  1  0.77234100  0.53630400  0.18871300  1
  N  600  1  0.93429200  0.60037800  0.29116100  1
  N  603  1  0.06274400  0.13729300  0.76990800  1
  N  613  1  0.06207400  0.15997600  0.71321100  1
  N  617  1  0.06209700  0.20361900  0.76645700  1
  N  618  1  0.11596500  0.12535700  0.72221200  1
  N  623  1  0.03574700  0.23019400  0.68851200  1
  N  624  1  0.10060300  0.06818700  0.79058300  1
  N  627  1  0.44005700  0.36544300  0.77003400  1
  N  637  1  0.44009800  0.34258700  0.71339000  1
  N  641  1  0.44038400  0.29912000  0.76671500  1
  N  642  1  0.38640700  0.37748000  0.72262000  1
  N  647  1  0.46621900  0.27225600  0.68873300  1
  N  648  1  0.40271400  0.43475500  0.79086100  1
  N  651  1  0.36552200  0.06230000  0.73262800  1
  N  661  1  0.34311000  0.06234200  0.78945600  1
  N  665  1  0.29933200  0.06176800  0.73627400  1
  N  666  1  0.37823800  0.11576600  0.78004900  1
  N  671  1  0.27292400  0.03610600  0.81437900  1
  N  672  1  0.43467200  0.09957100  0.71140300  1
  N  675  1  0.13706800  0.43974900  0.73253100  1
  N  685  1  0.15950700  0.44008500  0.78936000  1
  N  689  1  0.20327600  0.44029600  0.73617400  1
  N  690  1  0.12439100  0.38662300  0.78017200  1
  N  695  1  0.22975800  0.46621500  0.81421900  1
  N  696  1  0.06790500  0.40231200  0.71151100  1
  N  699  1  0.93991700  0.86546600  0.23255500  1
  N  709  1  0.94009600  0.84310300  0.28940200  1
  N  713  1  0.94055400  0.79928600  0.23623700  1
  N  714  1  0.88661600  0.87815700  0.28008400  1
  N  719  1  0.96636000  0.77292600  0.31432200  1
  N  720  1  0.90240600  0.93450100  0.21135900  1
  N  723  1  0.56261400  0.63690700  0.23262100  1
  N  733  1  0.56246400  0.65944100  0.28941900  1
  N  737  1  0.56214200  0.70312900  0.23619800  1
  N  738  1  0.61589100  0.62427400  0.28017400  1
  N  743  1  0.53631600  0.72970800  0.31424500  1
  N  744  1  0.59983200  0.56760800  0.21162800  1
  N  1107  1  0.97175200  0.97845400  0.31781200  1
  N  1117  1  0.03685100  0.01814300  0.29693700  1
  N  1121  1  0.97943500  0.96635500  0.27139700  1
  N  1122  1  0.99580300  0.05978000  0.31797800  1
  N  1127  1  0.08207300  0.00072100  0.24803400  1
  N  1128  1  0.91942300  0.00176600  0.36127600  1
  N  1131  1  0.53085700  0.52424400  0.31775000  1
  N  1141  1  0.46574300  0.48436200  0.29704500  1
  N  1145  1  0.52295900  0.53623300  0.27135500  1
  N  1146  1  0.50688900  0.44289800  0.31813300  1
  N  1151  1  0.42036200  0.50152200  0.24816000  1
  N  1152  1  0.58336100  0.50116700  0.36117600  1
  N  1155  1  0.02412800  0.47176100  0.81775100  1
  N  1165  1  0.98444700  0.53688900  0.79690200  1
  N  1169  1  0.03623600  0.47948800  0.77134300  1
  N  1170  1  0.94281500  0.49585100  0.81794800  1
  N  1175  1  0.00186300  0.58213600  0.74800900  1
  N  1176  1  0.00081300  0.41941400  0.86120200  1
  N  1179  1  0.47833000  0.03079900  0.81776400  1
  N  1189  1  0.51821200  0.96572200  0.79701500  1
  N  1193  1  0.46636000  0.02297600  0.77135300  1
  N  1194  1  0.55968500  0.00686200  0.81811700  1
  N  1199  1  0.50104100  0.92038800  0.74811200  1
  N  1200  1  0.50139500  0.08324800  0.86122700  1
  N  1203  1  0.73074400  0.27629000  0.47246300  1
  N  1213  1  0.77472900  0.22538400  0.43917700  1
  N  1217  1  0.71885400  0.21536500  0.48544400  1
  N  1218  1  0.73825400  0.26488200  0.41121800  1
  N  1223  1  0.80152600  0.15120300  0.45914400  1
  N  1224  1  0.69686200  0.34852100  0.45783000  1
  N  1227  1  0.72634400  0.23044200  0.97254700  1
  N  1237  1  0.77699900  0.27460700  0.93916700  1
  N  1241  1  0.78732500  0.21862400  0.98533000  1
  N  1242  1  0.73728700  0.23828400  0.91128100  1
  N  1247  1  0.85124000  0.30144600  0.95897700  1
  N  1248  1  0.65403500  0.19659500  0.95812400  1
  N  1251  1  0.27186900  0.72621000  0.13714800  1
  N  1261  1  0.22786700  0.77699900  0.17046300  1
  N  1265  1  0.28384600  0.78718700  0.12428000  1
  N  1266  1  0.26454800  0.73758200  0.19840800  1
  N  1271  1  0.20103700  0.85118200  0.15051700  1
  N  1272  1  0.30595200  0.65405800  0.15168700  1
  N  1275  1  0.27623500  0.77189700  0.63710800  1
  N  1285  1  0.22540900  0.72788000  0.67038400  1
  N  1289  1  0.21527200  0.78388500  0.62421100  1
  N  1290  1  0.26480600  0.76454800  0.69836100  1
  N  1295  1  0.15124700  0.70105900  0.65038500  1
  N  1296  1  0.34837800  0.80596500  0.65169100  1
  N  1299  1  0.63707800  0.94012100  0.57345200  1
  N  1309  1  0.65992200  0.94050400  0.51679900  1
  N  1313  1  0.70342400  0.94055400  0.57010800  1
  N  1314  1  0.62513300  0.88672000  0.52586900  1
  N  1319  1  0.73023300  0.96670300  0.49216400  1
  N  1320  1  0.56776400  0.90261500  0.59410200  1
  N  1323  1  0.86524300  0.56270800  0.57373700  1
  N  1333  1  0.84257800  0.56252600  0.51703900  1
  N  1337  1  0.79895900  0.56222200  0.57029800  1
  N  1338  1  0.87736000  0.61628200  0.52628600  1
  N  1343  1  0.77234100  0.53630400  0.49228400  1
  N  1344  1  0.93429200  0.60037800  0.59473200  1
  N  1347  1  0.06274400  0.13729300  0.07347900  1
  N  1357  1  0.06207400  0.15997600  0.01678200  1
  N  1361  1  0.06209700  0.20361900  0.07002800  1
  N  1362  1  0.11596500  0.12535700  0.02578300  1
  N  1367  1  0.03574700  0.23019400  0.99208300  1
  N  1368  1  0.10060300  0.06818700  0.09415400  1
  N  1371  1  0.44005700  0.36544300  0.07360500  1
  N  1381  1  0.44009800  0.34258700  0.01696100  1
  N  1385  1  0.44038400  0.29912000  0.07028600  1
  N  1386  1  0.38640700  0.37748000  0.02619100  1
  N  1391  1  0.46621900  0.27225600  0.99230400  1
  N  1392  1  0.40271400  0.43475500  0.09443200  1
  N  1395  1  0.36552200  0.06230000  0.03619900  1
  N  1405  1  0.34311000  0.06234200  0.09302700  1
  N  1409  1  0.29933200  0.06176800  0.03984500  1
  N  1410  1  0.37823800  0.11576600  0.08362000  1
  N  1415  1  0.27292400  0.03610600  0.11795000  1
  N  1416  1  0.43467200  0.09957100  0.01497400  1
  N  1419  1  0.13706800  0.43974900  0.03610200  1
  N  1429  1  0.15950700  0.44008500  0.09293100  1
  N  1433  1  0.20327600  0.44029600  0.03974500  1
  N  1434  1  0.12439100  0.38662300  0.08374300  1
  N  1439  1  0.22975800  0.46621500  0.11779000  1
  N  1440  1  0.06790500  0.40231200  0.01508200  1
  N  1443  1  0.93991700  0.86546600  0.53612600  1
  N  1453  1  0.94009600  0.84310300  0.59297300  1
  N  1457  1  0.94055400  0.79928600  0.53980800  1
  N  1458  1  0.88661600  0.87815700  0.58365500  1
  N  1463  1  0.96636000  0.77292600  0.61789300  1
  N  1464  1  0.90240600  0.93450100  0.51493000  1
  N  1467  1  0.56261400  0.63690700  0.53619200  1
  N  1477  1  0.56246400  0.65944100  0.59299000  1
  N  1481  1  0.56214200  0.70312900  0.53976900  1
  N  1482  1  0.61589100  0.62427400  0.58374500  1
  N  1487  1  0.53631600  0.72970800  0.61781600  1
  N  1488  1  0.59983200  0.56760800  0.51519900  1
  O  379  1  0.98455100  0.93793400  0.96653900  1
  O  380  1  0.01035300  0.07085900  0.03082400  1
  O  381  1  0.97687900  0.07950000  0.00745900  1
  O  382  1  0.96611600  0.97493800  0.95009600  1
  O  403  1  0.51777000  0.56463700  0.96646500  1
  O  404  1  0.49241100  0.43187700  0.03103400  1
  O  405  1  0.52580300  0.42316200  0.00761900  1
  O  406  1  0.53625300  0.52763600  0.95004800  1
  O  427  1  0.06465600  0.48460400  0.46648700  1
  O  428  1  0.93175200  0.51039500  0.53080200  1
  O  429  1  0.92308100  0.47694100  0.50742700  1
  O  430  1  0.02765100  0.46618000  0.45003900  1
  O  451  1  0.43795500  0.01779300  0.46645800  1
  O  452  1  0.57071800  0.99236300  0.53100400  1
  O  453  1  0.57941000  0.02579300  0.50761400  1
  O  454  1  0.47495900  0.03628900  0.45005500  1
  O  475  1  0.72770900  0.21513100  0.20204800  1
  O  476  1  0.75714800  0.28073100  0.09657100  1
  O  477  1  0.71422900  0.26153800  0.09610500  1
  O  478  1  0.69798500  0.19559900  0.17948800  1
  O  499  1  0.78765000  0.22743000  0.70194500  1
  O  500  1  0.72134800  0.25722600  0.59674800  1
  O  501  1  0.74055400  0.21431700  0.59609200  1
  O  502  1  0.80710300  0.19778300  0.67929200  1
  O  523  1  0.27504200  0.78744700  0.80052100  1
  O  524  1  0.24572100  0.72169300  0.90594300  1
  O  525  1  0.28860500  0.74096400  0.90633900  1
  O  526  1  0.30468500  0.80697400  0.82314100  1
  O  547  1  0.21503200  0.77509500  0.30045100  1
  O  548  1  0.28068500  0.74571200  0.40589800  1
  O  549  1  0.26141400  0.78859600  0.40629700  1
  O  550  1  0.19548000  0.80472200  0.32307000  1
  O  571  1  0.71167500  0.96539700  0.27554800  1
  O  572  1  0.60230900  0.88989700  0.20948600  1
  O  573  1  0.62965900  0.85848500  0.22550200  1
  O  574  1  0.72467200  0.92116600  0.26880300  1
  O  595  1  0.79072100  0.53733600  0.27568100  1
  O  596  1  0.90027400  0.61317700  0.20998000  1
  O  597  1  0.87276000  0.64450100  0.22593600  1
  O  598  1  0.77768500  0.58157800  0.26900800  1
  O  619  1  0.03726500  0.21185400  0.77549300  1
  O  620  1  0.11279700  0.10247300  0.70945700  1
  O  621  1  0.14420000  0.12998900  0.72532700  1
  O  622  1  0.08145800  0.22490400  0.76866600  1
  O  643  1  0.46526400  0.29087100  0.77567100  1
  O  644  1  0.38954000  0.40031300  0.70981100  1
  O  645  1  0.35818400  0.37298400  0.72590200  1
  O  646  1  0.42100000  0.27787900  0.76903600  1
  O  667  1  0.29106000  0.03683900  0.72740100  1
  O  668  1  0.40121100  0.11254900  0.79271100  1
  O  669  1  0.37376000  0.14400600  0.77683800  1
  O  670  1  0.27804900  0.08111400  0.73398300  1
  O  691  1  0.21159600  0.46516200  0.72723200  1
  O  692  1  0.10142300  0.38993400  0.79282700  1
  O  693  1  0.12886800  0.35836100  0.77707000  1
  O  694  1  0.22451900  0.42089700  0.73393500  1
  O  715  1  0.96546600  0.79101600  0.22733400  1
  O  716  1  0.88985100  0.90116300  0.29271500  1
  O  717  1  0.85837000  0.87362400  0.27694600  1
  O  718  1  0.92121000  0.77799600  0.23397900  1
  O  739  1  0.53725700  0.71142900  0.22727500  1
  O  740  1  0.61259900  0.60134900  0.29287300  1
  O  741  1  0.64415100  0.62869900  0.27700300  1
  O  742  1  0.58153200  0.72437500  0.23392300  1
  O  1123  1  0.98455100  0.93793400  0.27011000  1
  O  1124  1  0.01035300  0.07085900  0.33439500  1
  O  1125  1  0.97687900  0.07950000  0.31103000  1
  O  1126  1  0.96611600  0.97493800  0.25366700  1
  O  1147  1  0.51777000  0.56463700  0.27003600  1
  O  1148  1  0.49241100  0.43187700  0.33460500  1
  O  1149  1  0.52580300  0.42316200  0.31119000  1
  O  1150  1  0.53625300  0.52763600  0.25361900  1
  O  1171  1  0.06465600  0.48460400  0.77005800  1
  O  1172  1  0.93175200  0.51039500  0.83437300  1
  O  1173  1  0.92308100  0.47694100  0.81099800  1
  O  1174  1  0.02765100  0.46618000  0.75361000  1
  O  1195  1  0.43795500  0.01779300  0.77002900  1
  O  1196  1  0.57071800  0.99236300  0.83457500  1
  O  1197  1  0.57941000  0.02579300  0.81118500  1
  O  1198  1  0.47495900  0.03628900  0.75362600  1
  O  1219  1  0.72770900  0.21513100  0.50561900  1
  O  1220  1  0.75714800  0.28073100  0.40014200  1
  O  1221  1  0.71422900  0.26153800  0.39967600  1
  O  1222  1  0.69798500  0.19559900  0.48305900  1
  O  1243  1  0.78765000  0.22743000  0.00551601  1
  O  1244  1  0.72134800  0.25722600  0.90031900  1
  O  1245  1  0.74055400  0.21431700  0.89966300  1
  O  1246  1  0.80710300  0.19778300  0.98286300  1
  O  1267  1  0.27504200  0.78744700  0.10409200  1
  O  1268  1  0.24572100  0.72169300  0.20951400  1
  O  1269  1  0.28860500  0.74096400  0.20991000  1
  O  1270  1  0.30468500  0.80697400  0.12671200  1
  O  1291  1  0.21503200  0.77509500  0.60402200  1
  O  1292  1  0.28068500  0.74571200  0.70946900  1
  O  1293  1  0.26141400  0.78859600  0.70986800  1
  O  1294  1  0.19548000  0.80472200  0.62664100  1
  O  1315  1  0.71167500  0.96539700  0.57911900  1
  O  1316  1  0.60230900  0.88989700  0.51305700  1
  O  1317  1  0.62965900  0.85848500  0.52907300  1
  O  1318  1  0.72467200  0.92116600  0.57237400  1
  O  1339  1  0.79072100  0.53733600  0.57925200  1
  O  1340  1  0.90027400  0.61317700  0.51355100  1
  O  1341  1  0.87276000  0.64450100  0.52950700  1
  O  1342  1  0.77768500  0.58157800  0.57257900  1
  O  1363  1  0.03726500  0.21185400  0.07906400  1
  O  1364  1  0.11279700  0.10247300  0.01302800  1
  O  1365  1  0.14420000  0.12998900  0.02889800  1
  O  1366  1  0.08145800  0.22490400  0.07223700  1
  O  1387  1  0.46526400  0.29087100  0.07924200  1
  O  1388  1  0.38954000  0.40031300  0.01338200  1
  O  1389  1  0.35818400  0.37298400  0.02947300  1
  O  1390  1  0.42100000  0.27787900  0.07260700  1
  O  1411  1  0.29106000  0.03683900  0.03097200  1
  O  1412  1  0.40121100  0.11254900  0.09628200  1
  O  1413  1  0.37376000  0.14400600  0.08040900  1
  O  1414  1  0.27804900  0.08111400  0.03755400  1
  O  1435  1  0.21159600  0.46516200  0.03080300  1
  O  1436  1  0.10142300  0.38993400  0.09639800  1
  O  1437  1  0.12886800  0.35836100  0.08064100  1
  O  1438  1  0.22451900  0.42089700  0.03750600  1
  O  1459  1  0.96546600  0.79101600  0.53090500  1
  O  1460  1  0.88985100  0.90116300  0.59628600  1
  O  1461  1  0.85837000  0.87362400  0.58051700  1
  O  1462  1  0.92121000  0.77799600  0.53755000  1
  O  1483  1  0.53725700  0.71142900  0.53084600  1
  O  1484  1  0.61259900  0.60134900  0.59644400  1
  O  1485  1  0.64415100  0.62869900  0.58057400  1
  O  1486  1  0.58153200  0.72437500  0.53749400  1
