# generated using pymatgen
data_H40C55(N2O)4
_symmetry_space_group_name_H-M   'P 1'
_cell_length_a   38.20070000
_cell_length_b   47.82220000
_cell_length_c   47.82220000
_cell_angle_alpha   90.00000000
_cell_angle_beta   90.00020000
_cell_angle_gamma   90.00000000
_symmetry_Int_Tables_number   1
_chemical_formula_structural   H40C55(N2O)4
_chemical_formula_sum   'H640 C880 N128 O64'
_cell_volume   87363.58032392
_cell_formula_units_Z   16
loop_
 _symmetry_equiv_pos_site_id
 _symmetry_equiv_pos_as_xyz
  1  'x, y, z'
loop_
 _atom_site_type_symbol
 _atom_site_label
 _atom_site_symmetry_multiplicity
 _atom_site_fract_x
 _atom_site_fract_y
 _atom_site_fract_z
 _atom_site_occupancy
  H  25  1  0.00922500  0.08924000  0.14285900  1
  H  26  1  0.00785900  0.09745100  0.09376800  1
  H  27  1  0.00348800  0.16198900  0.01246100  1
  H  28  1  0.00182400  0.20785600  0.99327900  1
  H  29  1  0.99964800  0.24210700  0.07420300  1
  H  30  1  0.99543900  0.17508600  0.15788600  1
  H  31  1  0.93284300  0.18130500  0.08928900  1
  H  32  1  0.87787600  0.24347100  0.13318800  1
  H  33  1  0.93157900  0.26001700  0.15283800  1
  H  34  1  0.06651400  0.17884900  0.09640600  1
  H  35  1  0.06174200  0.25677000  0.16075900  1
  H  36  1  0.11691300  0.23585900  0.14969900  1
  H  39  1  0.02723000  0.13571700  0.05797600  1
  H  40  1  0.98090000  0.13408800  0.05654000  1
  H  42  1  0.99818800  0.26494400  0.13833800  1
  H  43  1  0.99548600  0.24145900  0.16692200  1
  H  45  1  0.12648400  0.17225700  0.10387500  1
  H  46  1  0.14174900  0.18422800  0.13609100  1
  H  48  1  0.87301700  0.18638100  0.07921800  1
  H  49  1  0.85554600  0.21951700  0.08524600  1
  H  51  1  0.00361800  0.27376800  0.03641400  1
  H  52  1  0.97080800  0.26184900  0.01394700  1
  H  54  1  0.02829800  0.11749300  0.19071400  1
  H  55  1  0.00140900  0.14621600  0.19715600  1
  H  80  1  0.00923800  0.91149500  0.66673400  1
  H  81  1  0.00787900  0.90328300  0.71582600  1
  H  82  1  0.00349100  0.83874800  0.79713600  1
  H  83  1  0.00180600  0.79288200  0.81631900  1
  H  84  1  0.99967700  0.75862600  0.73539500  1
  H  85  1  0.99549400  0.82564500  0.65170800  1
  H  86  1  0.93289000  0.81942000  0.72030200  1
  H  87  1  0.87793300  0.75724800  0.67640100  1
  H  88  1  0.93163900  0.74071000  0.65675400  1
  H  89  1  0.06656200  0.82187500  0.71320600  1
  H  90  1  0.06180500  0.74394900  0.64886000  1
  H  91  1  0.11697400  0.76485800  0.65993200  1
  H  94  1  0.02725700  0.86501800  0.75162100  1
  H  95  1  0.98092600  0.86664500  0.75305000  1
  H  97  1  0.99824000  0.73578300  0.67126800  1
  H  98  1  0.99555100  0.75926200  0.64267900  1
  H  100  1  0.12653800  0.82846200  0.70575200  1
  H  101  1  0.14181900  0.81647800  0.67354300  1
  H  103  1  0.87306400  0.81433300  0.73037400  1
  H  104  1  0.85560400  0.78119300  0.72433900  1
  H  106  1  0.00359500  0.72696500  0.77318700  1
  H  107  1  0.97081100  0.73889900  0.79566800  1
  H  109  1  0.02832300  0.88326300  0.61888000  1
  H  110  1  0.00147300  0.85451500  0.61243700  1
  H  135  1  0.00920900  0.76233400  0.99367600  1
  H  136  1  0.00784600  0.81142200  0.00189900  1
  H  137  1  0.00349700  0.89271900  0.06645800  1
  H  138  1  0.00183900  0.91188800  0.11233100  1
  H  139  1  0.99968800  0.83095300  0.14656000  1
  H  140  1  0.99547000  0.74728900  0.07952500  1
  H  141  1  0.93287200  0.81588400  0.08576200  1
  H  142  1  0.87791000  0.77196500  0.14792000  1
  H  143  1  0.93161600  0.75231100  0.16445500  1
  H  144  1  0.06653700  0.80875800  0.08328300  1
  H  145  1  0.06178200  0.74440300  0.16120500  1
  H  146  1  0.11694800  0.75545800  0.14028400  1
  H  149  1  0.02723800  0.84720700  0.04016900  1
  H  150  1  0.98090800  0.84864500  0.03855000  1
  H  152  1  0.99823200  0.76682300  0.16938600  1
  H  153  1  0.99551700  0.73824100  0.14590000  1
  H  155  1  0.12650600  0.80128000  0.07668000  1
  H  156  1  0.14177800  0.76906900  0.08866100  1
  H  158  1  0.87304100  0.82593800  0.09083000  1
  H  159  1  0.85557500  0.81991200  0.12396800  1
  H  161  1  0.00364000  0.86873000  0.17823200  1
  H  162  1  0.97084500  0.89121300  0.16632100  1
  H  164  1  0.02830400  0.71447300  0.02191000  1
  H  165  1  0.00144100  0.70802400  0.05064700  1
  H  190  1  0.00916800  0.23843900  0.81594300  1
  H  191  1  0.00783100  0.18934700  0.80773100  1
  H  192  1  0.00343700  0.10803100  0.74320100  1
  H  193  1  0.00174400  0.08884300  0.69733900  1
  H  194  1  0.99964000  0.16976400  0.66307300  1
  H  195  1  0.99543400  0.25345700  0.73008600  1
  H  196  1  0.93285600  0.18487900  0.72389000  1
  H  197  1  0.87788100  0.22879500  0.66173900  1
  H  198  1  0.93158700  0.24842600  0.64517800  1
  H  199  1  0.06653000  0.19195500  0.72631100  1
  H  200  1  0.06175300  0.25631200  0.64839100  1
  H  201  1  0.11692700  0.24524200  0.66929200  1
  H  204  1  0.02722800  0.15354200  0.76946500  1
  H  205  1  0.98089700  0.15212400  0.77109800  1
  H  207  1  0.99819300  0.23389800  0.64022800  1
  H  208  1  0.99550400  0.26248500  0.66370900  1
  H  210  1  0.12651000  0.19941800  0.73289000  1
  H  211  1  0.14177400  0.23163300  0.72091400  1
  H  213  1  0.87301500  0.17484400  0.71885000  1
  H  214  1  0.85553100  0.18086200  0.68571700  1
  H  216  1  0.00353000  0.13196600  0.63141600  1
  H  217  1  0.97075600  0.10948000  0.64335800  1
  H  219  1  0.02821500  0.28631900  0.78769900  1
  H  220  1  0.00134100  0.29273200  0.75895900  1
  H  245  1  0.53042200  0.58866400  0.63568900  1
  H  246  1  0.51869700  0.59790000  0.58754400  1
  H  247  1  0.48953200  0.66298900  0.51024300  1
  H  248  1  0.47730200  0.70863700  0.49303200  1
  H  249  1  0.48531300  0.74111800  0.57445200  1
  H  250  1  0.51401100  0.67344400  0.65477900  1
  H  251  1  0.43555200  0.67089700  0.59936900  1
  H  252  1  0.38263400  0.72180700  0.65718100  1
  H  253  1  0.43524600  0.74763800  0.66530900  1
  H  254  1  0.56623300  0.68839100  0.58201600  1
  H  255  1  0.56218500  0.76430800  0.64880200  1
  H  256  1  0.61597000  0.75353500  0.62556400  1
  H  259  1  0.52597200  0.63870900  0.55062800  1
  H  260  1  0.48074200  0.63245300  0.55611700  1
  H  262  1  0.49373100  0.76277500  0.63884500  1
  H  263  1  0.50390100  0.73915600  0.66622900  1
  H  265  1  0.63838600  0.73281600  0.57635900  1
  H  266  1  0.62443300  0.69871300  0.56968500  1
  H  268  1  0.36261900  0.66950900  0.64295300  1
  H  269  1  0.37729600  0.65907600  0.60999600  1
  H  271  1  0.47159800  0.77284800  0.53865700  1
  H  272  1  0.44675600  0.75843600  0.51182000  1
  H  274  1  0.55460700  0.61331500  0.68178500  1
  H  275  1  0.53287500  0.64391000  0.69142700  1
  H  300  1  0.53042700  0.41207000  0.17393500  1
  H  301  1  0.51869900  0.40282900  0.22207800  1
  H  302  1  0.48954300  0.33773200  0.29937100  1
  H  303  1  0.47731500  0.29208200  0.31657800  1
  H  304  1  0.48533900  0.25960900  0.23515800  1
  H  305  1  0.51404000  0.32729100  0.15483700  1
  H  306  1  0.43557300  0.32982400  0.21024900  1
  H  307  1  0.38266000  0.27891200  0.15243300  1
  H  308  1  0.43527700  0.25309200  0.14429900  1
  H  309  1  0.56625300  0.31234400  0.22759900  1
  H  310  1  0.56222200  0.23643200  0.16080600  1
  H  311  1  0.61600400  0.24721100  0.18404400  1
  H  314  1  0.52597900  0.36201800  0.25899000  1
  H  315  1  0.48075000  0.36826800  0.25349900  1
  H  317  1  0.49376500  0.23795800  0.17076100  1
  H  318  1  0.50393500  0.26157900  0.14337800  1
  H  320  1  0.63842500  0.26792600  0.23324900  1
  H  321  1  0.62445400  0.30202100  0.23993800  1
  H  323  1  0.36264500  0.33122500  0.16667400  1
  H  324  1  0.37730700  0.34162600  0.19964500  1
  H  326  1  0.47162200  0.22787500  0.27094600  1
  H  327  1  0.44677700  0.24228300  0.29778500  1
  H  329  1  0.55462500  0.38742500  0.12784100  1
  H  330  1  0.53290300  0.35682800  0.11819300  1
  H  355  1  0.53044500  0.26950400  0.49310300  1
  H  356  1  0.51871300  0.31764700  0.50234300  1
  H  357  1  0.48954600  0.39493800  0.56744300  1
  H  358  1  0.47731300  0.41214300  0.61309100  1
  H  359  1  0.48533900  0.33072100  0.64556300  1
  H  360  1  0.51405000  0.25040500  0.57788100  1
  H  361  1  0.43558300  0.30581400  0.57534500  1
  H  362  1  0.38267100  0.24798700  0.62624100  1
  H  363  1  0.43528200  0.23985500  0.65206800  1
  H  364  1  0.56626400  0.32316100  0.59283100  1
  H  365  1  0.56222200  0.25636600  0.66874100  1
  H  366  1  0.61600900  0.27960200  0.65796600  1
  H  369  1  0.52598700  0.35455900  0.54315500  1
  H  370  1  0.48075800  0.34906400  0.53690400  1
  H  372  1  0.49376300  0.26632200  0.66721000  1
  H  373  1  0.50394100  0.23894100  0.64358900  1
  H  375  1  0.63844100  0.32880100  0.63724500  1
  H  376  1  0.62446700  0.33549300  0.60315000  1
  H  378  1  0.36266300  0.26223400  0.57392700  1
  H  379  1  0.37732300  0.29520800  0.56353200  1
  H  381  1  0.47161900  0.36651000  0.67729700  1
  H  382  1  0.44677100  0.39334600  0.66289000  1
  H  384  1  0.55464400  0.22340900  0.51774800  1
  H  385  1  0.53291600  0.21376000  0.54834300  1
  H  410  1  0.53039600  0.73124600  0.31651300  1
  H  411  1  0.51867300  0.68310300  0.30727500  1
  H  412  1  0.48952500  0.60580200  0.24218000  1
  H  413  1  0.47730000  0.58859200  0.19653200  1
  H  414  1  0.48531300  0.67001300  0.16405500  1
  H  415  1  0.51400300  0.75033700  0.23173300  1
  H  416  1  0.43554900  0.69492800  0.23427300  1
  H  417  1  0.38262900  0.75273400  0.18336000  1
  H  418  1  0.43524000  0.76086600  0.15753300  1
  H  419  1  0.56623000  0.67758000  0.21679200  1
  H  420  1  0.56218300  0.74436100  0.14086600  1
  H  421  1  0.61597000  0.72112500  0.15164500  1
  H  424  1  0.52595800  0.64618700  0.26646800  1
  H  425  1  0.48072900  0.65167600  0.27271600  1
  H  427  1  0.49373100  0.73440300  0.14240000  1
  H  428  1  0.50389900  0.76179000  0.16601800  1
  H  430  1  0.63838800  0.67192000  0.17237200  1
  H  431  1  0.62443000  0.66525100  0.20647500  1
  H  433  1  0.36261900  0.73850600  0.23566800  1
  H  434  1  0.37729100  0.70554400  0.24609000  1
  H  436  1  0.47160100  0.63422000  0.13232200  1
  H  437  1  0.44675800  0.60738100  0.14673200  1
  H  439  1  0.55458900  0.77734200  0.29186400  1
  H  440  1  0.53286400  0.78698600  0.26126700  1
  H  447  1  0.93596900  0.07437100  0.16546100  1
  H  452  1  0.02007800  0.07462800  0.22213300  1
  H  457  1  0.96846600  0.93713500  0.14529200  1
  H  458  1  0.05144900  0.94507100  0.20247800  1
  H  460  1  0.93663900  0.97729500  0.11216200  1
  H  462  1  0.92193200  0.03825300  0.12117500  1
  H  464  1  0.04573700  0.90712600  0.15843200  1
  H  466  1  0.95027000  0.11608500  0.19157000  1
  H  473  1  0.93600000  0.92630400  0.64418000  1
  H  478  1  0.02002300  0.92611300  0.58742800  1
  H  483  1  0.96843400  0.06353900  0.66439900  1
  H  484  1  0.05132200  0.05567800  0.60711300  1
  H  486  1  0.93668100  0.02334300  0.69752600  1
  H  488  1  0.92198700  0.96239200  0.68848000  1
  H  490  1  0.04564700  0.09356800  0.65125000  1
  H  492  1  0.95029300  0.88460800  0.61802700  1
  H  499  1  0.93599000  0.73975400  0.97883600  1
  H  504  1  0.02004600  0.68303600  0.97906600  1
  H  509  1  0.96846600  0.75993800  0.84159900  1
  H  510  1  0.05138600  0.70269000  0.84950300  1
  H  512  1  0.93667800  0.79307500  0.88177500  1
  H  514  1  0.92196700  0.78404300  0.94273000  1
  H  516  1  0.04570400  0.74678500  0.81158300  1
  H  518  1  0.95027500  0.71361800  0.02054100  1
  H  525  1  0.93592200  0.26095800  0.83077300  1
  H  530  1  0.01990700  0.31773900  0.83054100  1
  H  535  1  0.96845300  0.24077900  0.96800500  1
  H  536  1  0.05131100  0.29808300  0.96009600  1
  H  538  1  0.93668600  0.20763000  0.92783100  1
  H  540  1  0.92195100  0.21665700  0.86688200  1
  H  542  1  0.04568100  0.25393400  0.99798600  1
  H  544  1  0.95018600  0.28708200  0.78906500  1
  H  551  1  0.45502300  0.57977000  0.66349600  1
  H  556  1  0.54289800  0.56945900  0.71534100  1
  H  561  1  0.45246000  0.43933300  0.64921200  1
  H  562  1  0.54107100  0.43684500  0.70132400  1
  H  564  1  0.42882900  0.48198300  0.61444600  1
  H  566  1  0.42981900  0.54507300  0.62085700  1
  H  568  1  0.52435100  0.39735100  0.66666667  1
  H  570  1  0.47765800  0.61837400  0.69171500  1
  H  577  1  0.45503600  0.42095900  0.14612100  1
  H  582  1  0.54291600  0.43128100  0.09428600  1
  H  587  1  0.45245500  0.56139600  0.16041000  1
  H  588  1  0.54106800  0.56389300  0.10830500  1
  H  590  1  0.42882200  0.51874600  0.19517200  1
  H  592  1  0.42982200  0.45565800  0.18875700  1
  H  594  1  0.52433800  0.60339100  0.14290100  1
  H  596  1  0.47768200  0.38236000  0.11790100  1
  H  603  1  0.45505100  0.24168500  0.48420900  1
  H  608  1  0.54294000  0.18985600  0.47389200  1
  H  613  1  0.45246800  0.25595800  0.34377000  1
  H  614  1  0.54109200  0.20386400  0.34128000  1
  H  616  1  0.42882900  0.29072500  0.38641600  1
  H  618  1  0.42982900  0.28431600  0.44950800  1
  H  620  1  0.52435600  0.23845000  0.30177700  1
  H  622  1  0.47770000  0.21347000  0.52280900  1
  H  629  1  0.45500200  0.75905900  0.32540000  1
  H  634  1  0.54289000  0.81088900  0.33571800  1
  H  639  1  0.45244700  0.74475600  0.46583500  1
  H  640  1  0.54106800  0.79685600  0.46832800  1
  H  642  1  0.42880100  0.70999800  0.42318500  1
  H  644  1  0.42978500  0.71642000  0.36009300  1
  H  646  1  0.52433500  0.76227100  0.50783200  1
  H  648  1  0.47764500  0.78727400  0.28679900  1
  H  655  1  0.83801300  0.19974100  0.16918200  1
  H  660  1  0.78638800  0.21330000  0.09281900  1
  H  665  1  0.70953300  0.27507900  0.23076300  1
  H  666  1  0.66477000  0.28462500  0.15111400  1
  H  668  1  0.77887000  0.26398000  0.24613900  1
  H  670  1  0.83616400  0.23107900  0.21840500  1
  H  672  1  0.64762900  0.31456900  0.19204200  1
  H  674  1  0.85352800  0.17317800  0.12718700  1
  H  681  1  0.83803400  0.80099000  0.64040300  1
  H  686  1  0.78644800  0.78741200  0.71678200  1
  H  691  1  0.70949900  0.72569200  0.57884600  1
  H  692  1  0.66478800  0.71611700  0.65850500  1
  H  694  1  0.77882300  0.73678700  0.56344500  1
  H  696  1  0.83614900  0.76965900  0.59117500  1
  H  698  1  0.64762100  0.68619400  0.61758300  1
  H  700  1  0.85356500  0.82754000  0.68240900  1
  H  707  1  0.83803100  0.73596300  0.10419600  1
  H  712  1  0.78642500  0.81233800  0.11774100  1
  H  717  1  0.70949900  0.67441500  0.17950300  1
  H  718  1  0.66477000  0.75407000  0.18904800  1
  H  720  1  0.77883100  0.65901800  0.16842100  1
  H  722  1  0.83615400  0.68674400  0.13554100  1
  H  724  1  0.64761100  0.71315600  0.21898600  1
  H  726  1  0.85356700  0.77796100  0.07764100  1
  H  733  1  0.83807300  0.26480600  0.70540000  1
  H  738  1  0.78637200  0.18844600  0.69199000  1
  H  743  1  0.70958800  0.32632700  0.63001200  1
  H  744  1  0.66474900  0.24668900  0.62062800  1
  H  746  1  0.77895100  0.34168600  0.64104700  1
  H  748  1  0.83624800  0.31397300  0.67397400  1
  H  750  1  0.64763100  0.28758200  0.59060600  1
  H  752  1  0.85357300  0.22284000  0.73202600  1
  H  759  1  0.16092800  0.79836700  0.16801200  1
  H  764  1  0.21214600  0.77809200  0.09297100  1
  H  769  1  0.29070100  0.72983600  0.23560900  1
  H  770  1  0.33474700  0.71302800  0.15691000  1
  H  772  1  0.22130300  0.74172200  0.25023400  1
  H  774  1  0.16344800  0.77170600  0.21989800  1
  H  776  1  0.35235200  0.68708200  0.20073600  1
  H  778  1  0.14519700  0.82105300  0.12337900  1
  H  785  1  0.16092300  0.20236300  0.64154700  1
  H  790  1  0.21213400  0.22259500  0.71660500  1
  H  795  1  0.29073500  0.27089300  0.57399800  1
  H  796  1  0.33476300  0.28766500  0.65270800  1
  H  798  1  0.22133800  0.25903200  0.55935800  1
  H  800  1  0.16346300  0.22905700  0.58967400  1
  H  802  1  0.35237800  0.31362400  0.60890000  1
  H  804  1  0.14517900  0.17966500  0.68617300  1
  H  811  1  0.16091300  0.26359300  0.10681400  1
  H  816  1  0.21211500  0.18853900  0.12706400  1
  H  821  1  0.29073000  0.33115200  0.17533000  1
  H  822  1  0.33475000  0.25244300  0.19212100  1
  H  824  1  0.22133500  0.34579500  0.16346600  1
  H  826  1  0.16345500  0.31547500  0.13349300  1
  H  828  1  0.35237800  0.29625100  0.21806700  1
  H  830  1  0.14517100  0.21896500  0.08412200  1
  H  837  1  0.16090700  0.73712800  0.70279100  1
  H  842  1  0.21219500  0.81216800  0.68261800  1
  H  847  1  0.29066200  0.66954600  0.63421900  1
  H  848  1  0.33478100  0.74824200  0.61752300  1
  H  850  1  0.22124000  0.65494200  0.64605800  1
  H  852  1  0.16339500  0.68527300  0.67606500  1
  H  854  1  0.35234900  0.70442400  0.59151500  1
  H  856  1  0.14520500  0.78175400  0.72552700  1
  H  881  1  0.24482300  0.29834800  0.35196700  1
  H  882  1  0.24345700  0.30655900  0.30287600  1
  H  883  1  0.23908600  0.37109700  0.22156900  1
  H  884  1  0.23742200  0.41696400  0.20238700  1
  H  885  1  0.23524600  0.45121500  0.28331100  1
  H  886  1  0.23103700  0.38419400  0.36699400  1
  H  887  1  0.16844100  0.39041300  0.29839700  1
  H  888  1  0.11347400  0.45257900  0.34229600  1
  H  889  1  0.16717700  0.46912500  0.36194600  1
  H  890  1  0.30211200  0.38795700  0.30551400  1
  H  891  1  0.29734000  0.46587800  0.36986700  1
  H  892  1  0.35251100  0.44496700  0.35880700  1
  H  895  1  0.26282800  0.34482500  0.26708400  1
  H  896  1  0.21649800  0.34319600  0.26564800  1
  H  898  1  0.23378600  0.47405200  0.34744600  1
  H  899  1  0.23108400  0.45056700  0.37603000  1
  H  901  1  0.36208200  0.38136500  0.31298300  1
  H  902  1  0.37734700  0.39333600  0.34519900  1
  H  904  1  0.10861500  0.39548900  0.28832600  1
  H  905  1  0.09114380  0.42862500  0.29435400  1
  H  907  1  0.23921600  0.48287600  0.24552200  1
  H  908  1  0.20640600  0.47095700  0.22305500  1
  H  910  1  0.26389600  0.32660100  0.39982200  1
  H  911  1  0.23700700  0.35532400  0.40626400  1
  H  936  1  0.24483600  0.12060300  0.87584200  1
  H  937  1  0.24347700  0.11239100  0.92493400  1
  H  938  1  0.23908900  0.04785590  0.00624390  1
  H  939  1  0.23740400  0.00198990  0.02542690  1
  H  940  1  0.23527500  0.96773400  0.94450300  1
  H  941  1  0.23109200  0.03475290  0.86081600  1
  H  942  1  0.16848800  0.02852790  0.92941000  1
  H  943  1  0.11353100  0.96635600  0.88550900  1
  H  944  1  0.16723700  0.94981800  0.86586200  1
  H  945  1  0.30216000  0.03098290  0.92231400  1
  H  946  1  0.29740300  0.95305700  0.85796800  1
  H  947  1  0.35257200  0.97396600  0.86904000  1
  H  950  1  0.26285500  0.07412590  0.96072900  1
  H  951  1  0.21652400  0.07575290  0.96215800  1
  H  953  1  0.23383800  0.94489100  0.88037600  1
  H  954  1  0.23114900  0.96837000  0.85178700  1
  H  956  1  0.36213600  0.03756990  0.91486000  1
  H  957  1  0.37741700  0.02558590  0.88265100  1
  H  959  1  0.10866200  0.02344090  0.93948200  1
  H  960  1  0.09120180  0.99030100  0.93344700  1
  H  962  1  0.23919300  0.93607300  0.98229500  1
  H  963  1  0.20640900  0.94800700  0.00477590  1
  H  965  1  0.26392100  0.09237090  0.82798800  1
  H  966  1  0.23707100  0.06362290  0.82154500  1
  H  991  1  0.24480700  0.97144200  0.20278400  1
  H  992  1  0.24344400  0.02052990  0.21100700  1
  H  993  1  0.23909500  0.10182700  0.27556600  1
  H  994  1  0.23743700  0.12099600  0.32143900  1
  H  995  1  0.23528600  0.04006090  0.35566800  1
  H  996  1  0.23106800  0.95639700  0.28863300  1
  H  997  1  0.16847000  0.02499190  0.29487000  1
  H  998  1  0.11350800  0.98107300  0.35702800  1
  H  999  1  0.16721400  0.96141900  0.37356300  1
  H  1000  1  0.30213500  0.01786590  0.29239100  1
  H  1001  1  0.29738000  0.95351100  0.37031300  1
  H  1002  1  0.35254600  0.96456600  0.34939200  1
  H  1005  1  0.26283600  0.05631490  0.24927700  1
  H  1006  1  0.21650600  0.05775290  0.24765800  1
  H  1008  1  0.23383000  0.97593100  0.37849400  1
  H  1009  1  0.23111500  0.94734900  0.35500800  1
  H  1011  1  0.36210400  0.01038790  0.28578800  1
  H  1012  1  0.37737600  0.97817700  0.29776900  1
  H  1014  1  0.10863900  0.03504590  0.29993800  1
  H  1015  1  0.09117280  0.02901990  0.33307600  1
  H  1017  1  0.23923800  0.07783790  0.38734000  1
  H  1018  1  0.20644300  0.10032100  0.37542900  1
  H  1020  1  0.26390200  0.92358100  0.23101800  1
  H  1021  1  0.23703900  0.91713200  0.25975500  1
  H  1046  1  0.24476600  0.44754700  0.02505090  1
  H  1047  1  0.24342900  0.39845500  0.01683890  1
  H  1048  1  0.23903500  0.31713900  0.95230900  1
  H  1049  1  0.23734200  0.29795100  0.90644700  1
  H  1050  1  0.23523800  0.37887200  0.87218100  1
  H  1051  1  0.23103200  0.46256500  0.93919400  1
  H  1052  1  0.16845400  0.39398700  0.93299800  1
  H  1053  1  0.11347900  0.43790300  0.87084700  1
  H  1054  1  0.16718500  0.45753400  0.85428600  1
  H  1055  1  0.30212800  0.40106300  0.93541900  1
  H  1056  1  0.29735100  0.46542000  0.85749900  1
  H  1057  1  0.35252500  0.45435000  0.87840000  1
  H  1060  1  0.26282600  0.36265000  0.97857300  1
  H  1061  1  0.21649500  0.36123200  0.98020600  1
  H  1063  1  0.23379100  0.44300600  0.84933600  1
  H  1064  1  0.23110200  0.47159300  0.87281700  1
  H  1066  1  0.36210800  0.40852600  0.94199800  1
  H  1067  1  0.37737200  0.44074100  0.93002200  1
  H  1069  1  0.10861300  0.38395200  0.92795800  1
  H  1070  1  0.09112880  0.38997000  0.89482500  1
  H  1072  1  0.23912800  0.34107400  0.84052400  1
  H  1073  1  0.20635400  0.31858800  0.85246600  1
  H  1075  1  0.26381300  0.49542700  0.99680700  1
  H  1076  1  0.23693900  0.50184000  0.96806700  1
  H  1101  1  0.76602000  0.79777200  0.84479700  1
  H  1102  1  0.75429500  0.80700800  0.79665200  1
  H  1103  1  0.72513000  0.87209700  0.71935100  1
  H  1104  1  0.71290000  0.91774500  0.70214000  1
  H  1105  1  0.72091100  0.95022600  0.78356000  1
  H  1106  1  0.74960900  0.88255200  0.86388700  1
  H  1107  1  0.67115000  0.88000500  0.80847700  1
  H  1108  1  0.61823200  0.93091500  0.86628900  1
  H  1109  1  0.67084400  0.95674600  0.87441700  1
  H  1110  1  0.80183100  0.89749900  0.79112400  1
  H  1111  1  0.79778300  0.97341600  0.85791000  1
  H  1112  1  0.85156800  0.96264300  0.83467200  1
  H  1115  1  0.76157000  0.84781700  0.75973600  1
  H  1116  1  0.71634000  0.84156100  0.76522500  1
  H  1118  1  0.72932900  0.97188300  0.84795300  1
  H  1119  1  0.73949900  0.94826400  0.87533700  1
  H  1121  1  0.87398400  0.94192400  0.78546700  1
  H  1122  1  0.86003100  0.90782100  0.77879300  1
  H  1124  1  0.59821700  0.87861700  0.85206100  1
  H  1125  1  0.61289400  0.86818400  0.81910400  1
  H  1127  1  0.70719600  0.98195600  0.74776500  1
  H  1128  1  0.68235400  0.96754400  0.72092800  1
  H  1130  1  0.79020500  0.82242300  0.89089300  1
  H  1131  1  0.76847300  0.85301800  0.90053500  1
  H  1156  1  0.76602500  0.62117800  0.38304300  1
  H  1157  1  0.75429700  0.61193700  0.43118600  1
  H  1158  1  0.72514100  0.54684000  0.50847900  1
  H  1159  1  0.71291300  0.50119000  0.52568600  1
  H  1160  1  0.72093700  0.46871700  0.44426600  1
  H  1161  1  0.74963800  0.53639900  0.36394500  1
  H  1162  1  0.67117100  0.53893200  0.41935700  1
  H  1163  1  0.61825800  0.48802000  0.36154100  1
  H  1164  1  0.67087500  0.46220000  0.35340700  1
  H  1165  1  0.80185100  0.52145200  0.43670700  1
  H  1166  1  0.79782000  0.44554000  0.36991400  1
  H  1167  1  0.85160200  0.45631900  0.39315200  1
  H  1170  1  0.76157700  0.57112600  0.46809800  1
  H  1171  1  0.71634800  0.57737600  0.46260700  1
  H  1173  1  0.72936300  0.44706600  0.37986900  1
  H  1174  1  0.73953300  0.47068700  0.35248600  1
  H  1176  1  0.87402300  0.47703400  0.44235700  1
  H  1177  1  0.86005200  0.51112900  0.44904600  1
  H  1179  1  0.59824300  0.54033300  0.37578200  1
  H  1180  1  0.61290500  0.55073400  0.40875300  1
  H  1182  1  0.70722000  0.43698300  0.48005400  1
  H  1183  1  0.68237500  0.45139100  0.50689300  1
  H  1185  1  0.79022300  0.59653300  0.33694900  1
  H  1186  1  0.76850100  0.56593600  0.32730100  1
  H  1211  1  0.76604300  0.47861200  0.70221100  1
  H  1212  1  0.75431100  0.52675500  0.71145100  1
  H  1213  1  0.72514400  0.60404600  0.77655100  1
  H  1214  1  0.71291100  0.62125100  0.82219900  1
  H  1215  1  0.72093700  0.53982900  0.85467100  1
  H  1216  1  0.74964800  0.45951300  0.78698900  1
  H  1217  1  0.67118100  0.51492200  0.78445300  1
  H  1218  1  0.61826900  0.45709500  0.83534900  1
  H  1219  1  0.67088000  0.44896300  0.86117600  1
  H  1220  1  0.80186200  0.53226900  0.80193900  1
  H  1221  1  0.79782000  0.46547400  0.87784900  1
  H  1222  1  0.85160700  0.48871000  0.86707400  1
  H  1225  1  0.76158500  0.56366700  0.75226300  1
  H  1226  1  0.71635600  0.55817200  0.74601200  1
  H  1228  1  0.72936100  0.47543000  0.87631800  1
  H  1229  1  0.73953900  0.44804900  0.85269700  1
  H  1231  1  0.87403900  0.53790900  0.84635300  1
  H  1232  1  0.86006500  0.54460100  0.81225800  1
  H  1234  1  0.59826100  0.47134200  0.78303500  1
  H  1235  1  0.61292100  0.50431600  0.77264000  1
  H  1237  1  0.70721700  0.57561800  0.88640500  1
  H  1238  1  0.68236900  0.60245400  0.87199800  1
  H  1240  1  0.79024200  0.43251700  0.72685600  1
  H  1241  1  0.76851400  0.42286800  0.75745100  1
  H  1266  1  0.76599400  0.94035400  0.52562100  1
  H  1267  1  0.75427100  0.89221100  0.51638300  1
  H  1268  1  0.72512300  0.81491000  0.45128800  1
  H  1269  1  0.71289800  0.79770000  0.40564000  1
  H  1270  1  0.72091100  0.87912100  0.37316300  1
  H  1271  1  0.74960100  0.95944500  0.44084100  1
  H  1272  1  0.67114700  0.90403600  0.44338100  1
  H  1273  1  0.61822700  0.96184200  0.39246800  1
  H  1274  1  0.67083800  0.96997400  0.36664100  1
  H  1275  1  0.80182800  0.88668800  0.42590000  1
  H  1276  1  0.79778100  0.95346900  0.34997400  1
  H  1277  1  0.85156800  0.93023300  0.36075300  1
  H  1280  1  0.76155600  0.85529500  0.47557600  1
  H  1281  1  0.71632700  0.86078400  0.48182400  1
  H  1283  1  0.72932900  0.94351100  0.35150800  1
  H  1284  1  0.73949700  0.97089800  0.37512600  1
  H  1286  1  0.87398600  0.88102800  0.38148000  1
  H  1287  1  0.86002800  0.87435900  0.41558300  1
  H  1289  1  0.59821700  0.94761400  0.44477600  1
  H  1290  1  0.61288900  0.91465200  0.45519800  1
  H  1292  1  0.70719900  0.84332800  0.34143000  1
  H  1293  1  0.68235600  0.81648900  0.35584000  1
  H  1295  1  0.79018700  0.98645000  0.50097200  1
  H  1296  1  0.76846200  0.99609400  0.47037500  1
  H  1303  1  0.17156700  0.28347900  0.37456900  1
  H  1308  1  0.25567600  0.28373600  0.43124100  1
  H  1313  1  0.20406400  0.14624300  0.35440000  1
  H  1314  1  0.28704700  0.15417900  0.41158600  1
  H  1316  1  0.17223700  0.18640300  0.32127000  1
  H  1318  1  0.15753000  0.24736100  0.33028300  1
  H  1320  1  0.28133500  0.11623400  0.36754000  1
  H  1322  1  0.18586800  0.32519300  0.40067800  1
  H  1329  1  0.17159800  0.13541200  0.85328800  1
  H  1334  1  0.25562100  0.13522100  0.79653600  1
  H  1339  1  0.20403200  0.27264700  0.87350700  1
  H  1340  1  0.28692000  0.26478600  0.81622100  1
  H  1342  1  0.17227900  0.23245100  0.90663400  1
  H  1344  1  0.15758500  0.17150000  0.89758800  1
  H  1346  1  0.28124500  0.30267600  0.86035800  1
  H  1348  1  0.18589100  0.09371590  0.82713500  1
  H  1355  1  0.17158800  0.94886200  0.18794400  1
  H  1360  1  0.25564400  0.89214400  0.18817400  1
  H  1365  1  0.20406400  0.96904600  0.05070690  1
  H  1366  1  0.28698400  0.91179800  0.05861090  1
  H  1368  1  0.17227600  0.00218290  0.09088290  1
  H  1370  1  0.15756500  0.99315100  0.15183800  1
  H  1372  1  0.28130200  0.95589300  0.02069090  1
  H  1374  1  0.18587300  0.92272600  0.22964900  1
  H  1381  1  0.17152000  0.47006600  0.03988090  1
  H  1386  1  0.25550500  0.52684700  0.03964890  1
  H  1391  1  0.20405100  0.44988700  0.17711300  1
  H  1392  1  0.28690900  0.50719100  0.16920400  1
  H  1394  1  0.17228400  0.41673800  0.13693900  1
  H  1396  1  0.15754900  0.42576500  0.07598990  1
  H  1398  1  0.28127900  0.46304200  0.20709400  1
  H  1400  1  0.18578400  0.49619000  0.99817300  1
  H  1407  1  0.69062100  0.78887800  0.87260400  1
  H  1412  1  0.77849600  0.77856700  0.92444900  1
  H  1417  1  0.68805800  0.64844100  0.85832000  1
  H  1418  1  0.77666900  0.64595300  0.91043200  1
  H  1420  1  0.66442700  0.69109100  0.82355400  1
  H  1422  1  0.66541700  0.75418100  0.82996500  1
  H  1424  1  0.75994900  0.60645900  0.87582700  1
  H  1426  1  0.71325600  0.82748200  0.90082300  1
  H  1433  1  0.69063400  0.63006700  0.35522900  1
  H  1438  1  0.77851400  0.64038900  0.30339400  1
  H  1443  1  0.68805300  0.77050400  0.36951800  1
  H  1444  1  0.77666600  0.77300100  0.31741300  1
  H  1446  1  0.66442000  0.72785400  0.40428000  1
  H  1448  1  0.66542000  0.66476600  0.39786500  1
  H  1450  1  0.75993600  0.81249900  0.35200900  1
  H  1452  1  0.71328000  0.59146800  0.32700900  1
  H  1459  1  0.69064900  0.45079300  0.69331700  1
  H  1464  1  0.77853800  0.39896400  0.68300000  1
  H  1469  1  0.68806600  0.46506600  0.55287800  1
  H  1470  1  0.77669000  0.41297200  0.55038800  1
  H  1472  1  0.66442700  0.49983300  0.59552400  1
  H  1474  1  0.66542700  0.49342400  0.65861600  1
  H  1476  1  0.75995400  0.44755800  0.51088500  1
  H  1478  1  0.71329800  0.42257800  0.73191700  1
  H  1485  1  0.69060000  0.96816700  0.53450800  1
  H  1490  1  0.77848800  0.01999690  0.54482600  1
  H  1495  1  0.68804500  0.95386400  0.67494300  1
  H  1496  1  0.77666600  0.00596390  0.67743600  1
  H  1498  1  0.66439900  0.91910600  0.63229300  1
  H  1500  1  0.66538300  0.92552800  0.56920100  1
  H  1502  1  0.75993300  0.97137900  0.71694000  1
  H  1504  1  0.71324300  0.99638200  0.49590700  1
  H  1511  1  0.07361080  0.40884900  0.37829000  1
  H  1516  1  0.02198580  0.42240800  0.30192700  1
  H  1521  1  0.94513100  0.48418700  0.43987100  1
  H  1522  1  0.90036800  0.49373300  0.36022200  1
  H  1524  1  0.01446780  0.47308800  0.45524700  1
  H  1526  1  0.07176180  0.44018700  0.42751300  1
  H  1528  1  0.88322700  0.52367700  0.40115000  1
  H  1530  1  0.08912580  0.38228600  0.33629500  1
  H  1537  1  0.07363180  0.01009790  0.84951100  1
  H  1542  1  0.02204580  0.99652000  0.92589000  1
  H  1547  1  0.94509700  0.93480000  0.78795400  1
  H  1548  1  0.90038600  0.92522500  0.86761300  1
  H  1550  1  0.01442080  0.94589500  0.77255300  1
  H  1552  1  0.07174680  0.97876700  0.80028300  1
  H  1554  1  0.88321900  0.89530200  0.82669100  1
  H  1556  1  0.08916280  0.03664790  0.89151700  1
  H  1563  1  0.07362880  0.94507100  0.31330400  1
  H  1568  1  0.02202280  0.02144590  0.32684900  1
  H  1573  1  0.94509700  0.88352300  0.38861100  1
  H  1574  1  0.90036800  0.96317800  0.39815600  1
  H  1576  1  0.01442880  0.86812600  0.37752900  1
  H  1578  1  0.07175180  0.89585200  0.34464900  1
  H  1580  1  0.88320900  0.92226400  0.42809400  1
  H  1582  1  0.08916480  0.98706900  0.28674900  1
  H  1589  1  0.07367080  0.47391400  0.91450800  1
  H  1594  1  0.02196980  0.39755400  0.90109800  1
  H  1599  1  0.94518600  0.53543500  0.83912000  1
  H  1600  1  0.90034700  0.45579700  0.82973600  1
  H  1602  1  0.01454880  0.55079400  0.85015500  1
  H  1604  1  0.07184580  0.52308100  0.88308200  1
  H  1606  1  0.88322900  0.49669000  0.79971400  1
  H  1608  1  0.08917080  0.43194800  0.94113400  1
  H  1615  1  0.39652600  0.00747490  0.37712000  1
  H  1620  1  0.44774400  0.98720000  0.30207900  1
  H  1625  1  0.52629900  0.93894400  0.44471700  1
  H  1626  1  0.57034500  0.92213600  0.36601800  1
  H  1628  1  0.45690100  0.95083000  0.45934200  1
  H  1630  1  0.39904600  0.98081400  0.42900600  1
  H  1632  1  0.58795000  0.89619000  0.40984400  1
  H  1634  1  0.38079500  0.03016090  0.33248700  1
  H  1641  1  0.39652100  0.41147100  0.85065500  1
  H  1646  1  0.44773200  0.43170300  0.92571300  1
  H  1651  1  0.52633300  0.48000100  0.78310600  1
  H  1652  1  0.57036100  0.49677300  0.86181600  1
  H  1654  1  0.45693600  0.46814000  0.76846600  1
  H  1656  1  0.39906100  0.43816500  0.79878200  1
  H  1658  1  0.58797600  0.52273200  0.81800800  1
  H  1660  1  0.38077700  0.38877300  0.89528100  1
  H  1667  1  0.39651100  0.47270100  0.31592200  1
  H  1672  1  0.44771300  0.39764700  0.33617200  1
  H  1677  1  0.52632800  0.54026000  0.38443800  1
  H  1678  1  0.57034800  0.46155100  0.40122900  1
  H  1680  1  0.45693300  0.55490300  0.37257400  1
  H  1682  1  0.39905300  0.52458300  0.34260100  1
  H  1684  1  0.58797600  0.50535900  0.42717500  1
  H  1686  1  0.38076900  0.42807300  0.29323000  1
  H  1693  1  0.39650500  0.94623600  0.91189900  1
  H  1698  1  0.44779300  0.02127590  0.89172600  1
  H  1703  1  0.52626000  0.87865400  0.84332700  1
  H  1704  1  0.57037900  0.95735000  0.82663100  1
  H  1706  1  0.45683800  0.86405000  0.85516600  1
  H  1708  1  0.39899300  0.89438100  0.88517300  1
  H  1710  1  0.58794700  0.91353200  0.80062300  1
  H  1712  1  0.38080300  0.99086200  0.93463500  1
  C  1  1  0.03212800  0.20711900  0.11646900  1
  C  2  1  0.03086400  0.22991200  0.13541600  1
  C  3  1  0.96459700  0.23074800  0.13235600  1
  C  4  1  0.96507600  0.20758800  0.11382200  1
  C  5  1  0.93269900  0.19773700  0.10299400  1
  C  6  1  0.90041500  0.21056700  0.10958000  1
  C  7  1  0.90064200  0.23333900  0.12829600  1
  C  8  1  0.93224900  0.24314000  0.13968200  1
  C  9  1  0.06234000  0.24050300  0.14685300  1
  C  10  1  0.09480500  0.22835600  0.14026100  1
  C  11  1  0.09678600  0.20555100  0.12166000  1
  C  12  1  0.06535900  0.19557000  0.10971600  1
  C  13  1  0.99843400  0.16437700  0.11505000  1
  C  14  1  0.00161700  0.14149400  0.09634700  1
  C  15  1  0.00222700  0.17450000  0.05504500  1
  C  16  1  0.00112000  0.19790000  0.07325100  1
  C  17  1  0.00270800  0.17871300  0.02581600  1
  C  18  1  0.00153400  0.20575900  0.01450400  1
  C  19  1  0.00075600  0.22948100  0.03202700  1
  C  20  1  0.00084000  0.22510000  0.06125400  1
  C  21  1  0.99724300  0.15869500  0.14421400  1
  C  22  1  0.00070600  0.13135000  0.15508000  1
  C  23  1  0.00500700  0.10916200  0.13595600  1
  C  24  1  0.00457600  0.11405200  0.10703100  1
  C  37  1  0.99909900  0.19426100  0.10464200  1
  C  38  1  0.00307900  0.14536300  0.06561100  1
  C  41  1  0.99724000  0.24282900  0.14413200  1
  C  44  1  0.13078400  0.19122200  0.11615100  1
  C  47  1  0.86730500  0.20149700  0.09574000  1
  C  50  1  0.99793900  0.25830300  0.02022100  1
  C  53  1  0.00262600  0.12636000  0.18587600  1
  C  56  1  0.03218100  0.79360800  0.69313800  1
  C  57  1  0.03092100  0.77081300  0.67419300  1
  C  58  1  0.96465200  0.76998300  0.67723400  1
  C  59  1  0.96512500  0.79314400  0.69576700  1
  C  60  1  0.93274900  0.80299300  0.70659300  1
  C  61  1  0.90046700  0.79015800  0.70000300  1
  C  62  1  0.90069500  0.76739600  0.68127600  1
  C  63  1  0.93230700  0.75758900  0.66990500  1
  C  64  1  0.06240000  0.76021800  0.66276300  1
  C  65  1  0.09486400  0.77236100  0.66936300  1
  C  66  1  0.09684100  0.79516800  0.68796300  1
  C  67  1  0.06541100  0.80515500  0.69989700  1
  C  68  1  0.99848900  0.83635200  0.69454400  1
  C  69  1  0.00165400  0.85923900  0.71324600  1
  C  70  1  0.00225600  0.82623500  0.75455100  1
  C  71  1  0.00115800  0.80283200  0.73634800  1
  C  72  1  0.00271900  0.82202400  0.78378200  1
  C  73  1  0.00153300  0.79497800  0.79509500  1
  C  74  1  0.00076400  0.77125700  0.77757400  1
  C  75  1  0.00087800  0.77563300  0.74834500  1
  C  76  1  0.99733200  0.84203300  0.66538000  1
  C  77  1  0.00075000  0.86938200  0.65451400  1
  C  78  1  0.00502000  0.89157300  0.67363900  1
  C  79  1  0.00460600  0.88668000  0.70256300  1
  C  92  1  0.99914800  0.80646800  0.70495500  1
  C  93  1  0.00310900  0.85537000  0.74398300  1
  C  96  1  0.99730000  0.75789700  0.66547000  1
  C  99  1  0.13084000  0.80949400  0.69348100  1
  C  102  1  0.86735800  0.79921800  0.71384800  1
  C  105  1  0.99793900  0.74243500  0.78938100  1
  C  108  1  0.00266300  0.87437400  0.62371600  1
  C  111  1  0.03216100  0.78869800  0.11156000  1
  C  112  1  0.03089900  0.76974500  0.13434900  1
  C  113  1  0.96463100  0.77281000  0.13519600  1
  C  114  1  0.96510700  0.79134800  0.11203900  1
  C  115  1  0.93273100  0.80217700  0.10219200  1
  C  116  1  0.90044900  0.79558400  0.11502400  1
  C  117  1  0.90067600  0.77686300  0.13778900  1
  C  118  1  0.93228800  0.76549600  0.14760000  1
  C  119  1  0.06237700  0.75830200  0.14493100  1
  C  120  1  0.09484300  0.76491200  0.13279600  1
  C  121  1  0.09681500  0.78350200  0.10998200  1
  C  122  1  0.06539000  0.79545700  0.10001100  1
  C  123  1  0.99845700  0.79012600  0.06882300  1
  C  124  1  0.00162400  0.80883500  0.04594300  1
  C  125  1  0.00224700  0.85013000  0.07895800  1
  C  126  1  0.00115100  0.83191900  0.10235500  1
  C  127  1  0.00272200  0.87935900  0.08317900  1
  C  128  1  0.00154000  0.89066300  0.11022800  1
  C  129  1  0.00078600  0.87313600  0.13394500  1
  C  130  1  0.00088500  0.84390900  0.12955700  1
  C  131  1  0.99726600  0.76096400  0.06313600  1
  C  132  1  0.00071900  0.75010300  0.03578900  1
  C  133  1  0.00501100  0.76923200  0.01360300  1
  C  134  1  0.00457400  0.79815600  0.01849800  1
  C  147  1  0.99912700  0.80053000  0.09870900  1
  C  148  1  0.00309000  0.83957000  0.04981900  1
  C  151  1  0.99727900  0.76103100  0.14727000  1
  C  154  1  0.13081100  0.78901200  0.09564900  1
  C  157  1  0.86733400  0.80941700  0.10594900  1
  C  160  1  0.99797300  0.88493000  0.16277300  1
  C  163  1  0.00264000  0.71930800  0.03079200  1
  C  166  1  0.03214300  0.21202700  0.69805000  1
  C  167  1  0.03087700  0.23097400  0.67525500  1
  C  168  1  0.96461000  0.22792500  0.67443000  1
  C  169  1  0.96508900  0.20939400  0.69759300  1
  C  170  1  0.93271200  0.19857800  0.70745400  1
  C  171  1  0.90042500  0.20517600  0.69463400  1
  C  172  1  0.90065300  0.22388100  0.67185300  1
  C  173  1  0.93226200  0.23524400  0.66203400  1
  C  174  1  0.06235500  0.24239600  0.66465100  1
  C  175  1  0.09482300  0.23579400  0.67678800  1
  C  176  1  0.09680200  0.21720400  0.69960200  1
  C  177  1  0.06537500  0.20527300  0.70959500  1
  C  178  1  0.99846000  0.21062200  0.74079600  1
  C  179  1  0.00163500  0.19192200  0.76368300  1
  C  180  1  0.00221600  0.15061400  0.73068300  1
  C  181  1  0.00112000  0.16881700  0.70728000  1
  C  182  1  0.00267700  0.12138400  0.72647600  1
  C  183  1  0.00146400  0.11006900  0.69943200  1
  C  184  1  0.00071100  0.12758800  0.67570700  1
  C  185  1  0.00083700  0.15681600  0.68008100  1
  C  186  1  0.99729000  0.23978800  0.74647600  1
  C  187  1  0.00070000  0.25065500  0.77382200  1
  C  188  1  0.00500000  0.23153500  0.79601500  1
  C  189  1  0.00461800  0.20261100  0.79112200  1
  C  202  1  0.99911200  0.20020900  0.71091300  1
  C  203  1  0.00308000  0.16118500  0.75981800  1
  C  206  1  0.99725300  0.23969400  0.66234300  1
  C  209  1  0.13080500  0.21169200  0.71392400  1
  C  212  1  0.86730800  0.19136000  0.70372800  1
  C  215  1  0.99788400  0.11577400  0.64688800  1
  C  218  1  0.00256000  0.28145300  0.77881600  1
  C  221  1  0.53282200  0.71044000  0.60955300  1
  C  222  1  0.53180600  0.73277200  0.62906700  1
  C  223  1  0.46710900  0.72450800  0.63720500  1
  C  224  1  0.46736300  0.70203800  0.61783100  1
  C  225  1  0.43562200  0.68725600  0.61316000  1
  C  226  1  0.40421500  0.69411200  0.62718400  1
  C  227  1  0.40469900  0.71656400  0.64626600  1
  C  228  1  0.43568000  0.73159700  0.65113600  1
  C  229  1  0.56264900  0.74809200  0.63483400  1
  C  230  1  0.59430500  0.74169900  0.62133800  1
  C  231  1  0.59600900  0.71977000  0.60170700  1
  C  232  1  0.56519900  0.70436300  0.59622400  1
  C  233  1  0.50835100  0.66375800  0.61184000  1
  C  234  1  0.50949500  0.64144700  0.59230100  1
  C  235  1  0.49480500  0.67466500  0.55287600  1
  C  236  1  0.49356100  0.69746400  0.57183800  1
  C  237  1  0.48859300  0.67927600  0.52412200  1
  C  238  1  0.48133400  0.70617400  0.51396500  1
  C  239  1  0.47998000  0.72928900  0.53222000  1
  C  240  1  0.48605900  0.72449400  0.56099800  1
  C  241  1  0.51490600  0.65757900  0.64044400  1
  C  242  1  0.52255300  0.63023000  0.64982100  1
  C  243  1  0.52411800  0.60860200  0.62983400  1
  C  244  1  0.51745900  0.61409300  0.60151300  1
  C  257  1  0.50049300  0.69343900  0.60275500  1
  C  258  1  0.50280400  0.64576700  0.56208300  1
  C  261  1  0.49910600  0.74084400  0.64374000  1
  C  264  1  0.62922300  0.71367500  0.58652600  1
  C  267  1  0.37167600  0.67748200  0.62276800  1
  C  270  1  0.47271100  0.75798700  0.52132600  1
  C  273  1  0.52962900  0.62432900  0.67992200  1
  C  276  1  0.53284800  0.29029200  0.20006100  1
  C  277  1  0.53183500  0.26796100  0.18054400  1
  C  278  1  0.46713800  0.27622300  0.17240200  1
  C  279  1  0.46738900  0.29869200  0.19177900  1
  C  280  1  0.43564300  0.31346500  0.19645600  1
  C  281  1  0.40423800  0.30661300  0.18242400  1
  C  282  1  0.40473300  0.28417300  0.16333000  1
  C  283  1  0.43571100  0.26913200  0.15847000  1
  C  284  1  0.56268000  0.25264800  0.17477500  1
  C  285  1  0.59433100  0.25903000  0.18828700  1
  C  286  1  0.59603600  0.28096800  0.20791000  1
  C  287  1  0.56522200  0.29637100  0.21339200  1
  C  288  1  0.50837000  0.33697300  0.19777700  1
  C  289  1  0.50950600  0.35928300  0.21731700  1
  C  290  1  0.49482300  0.32605800  0.25673800  1
  C  291  1  0.49358500  0.30326300  0.23777600  1
  C  292  1  0.48860800  0.32144500  0.28549200  1
  C  293  1  0.48135700  0.29454500  0.29564800  1
  C  294  1  0.48000400  0.27143200  0.27738900  1
  C  295  1  0.48608500  0.27623100  0.24861400  1
  C  296  1  0.51493000  0.34315400  0.16917400  1
  C  297  1  0.52257100  0.37050600  0.15979900  1
  C  298  1  0.52412900  0.39213200  0.17978800  1
  C  299  1  0.51746600  0.38663600  0.20810800  1
  C  312  1  0.50051700  0.30729000  0.20685800  1
  C  313  1  0.50281500  0.35495800  0.24753500  1
  C  316  1  0.49914000  0.25989000  0.16586800  1
  C  319  1  0.62925000  0.28706700  0.22309100  1
  C  322  1  0.37169400  0.32323000  0.18685200  1
  C  325  1  0.47273400  0.24273200  0.28827900  1
  C  328  1  0.52964900  0.37640900  0.12969900  1
  C  331  1  0.53285600  0.29562600  0.61488300  1
  C  332  1  0.53184100  0.27610800  0.63721200  1
  C  333  1  0.46714300  0.26796300  0.62894300  1
  C  334  1  0.46739700  0.28734600  0.60647700  1
  C  335  1  0.43565400  0.29202100  0.59170100  1
  C  336  1  0.40424900  0.27798600  0.59854700  1
  C  337  1  0.40474100  0.25888800  0.62098400  1
  C  338  1  0.43571700  0.25402800  0.63602800  1
  C  339  1  0.56268300  0.27034100  0.65252900  1
  C  340  1  0.59433400  0.28384700  0.64614500  1
  C  341  1  0.59604100  0.30347200  0.62420900  1
  C  342  1  0.56523000  0.30895500  0.60880400  1
  C  343  1  0.50838300  0.29334300  0.56820000  1
  C  344  1  0.50952200  0.31288600  0.54589000  1
  C  345  1  0.49482800  0.35230500  0.57911500  1
  C  346  1  0.49359300  0.33333333  0.60191200  1
  C  347  1  0.48861400  0.38105700  0.58372800  1
  C  348  1  0.48135700  0.39121100  0.61062800  1
  C  349  1  0.48000400  0.37295400  0.63374000  1
  C  350  1  0.48609300  0.34417900  0.62894300  1
  C  351  1  0.51494300  0.26474100  0.56201800  1
  C  352  1  0.52258700  0.25536700  0.53466700  1
  C  353  1  0.52414400  0.27535700  0.51304100  1
  C  354  1  0.51748200  0.30367700  0.51853700  1
  C  367  1  0.50052400  0.30242400  0.59788200  1
  C  368  1  0.50282500  0.34310200  0.55021400  1
  C  371  1  0.49914200  0.26143100  0.64528100  1
  C  374  1  0.62926000  0.31864500  0.61810600  1
  C  377  1  0.37170700  0.28241300  0.58192300  1
  C  380  1  0.47272900  0.38384200  0.66244000  1
  C  383  1  0.52966500  0.22526800  0.52876400  1
  C  386  1  0.53282000  0.70511400  0.19473600  1
  C  387  1  0.53180400  0.72462800  0.17240300  1
  C  388  1  0.46710600  0.73276600  0.18066500  1
  C  389  1  0.46736000  0.71339000  0.20313500  1
  C  390  1  0.43561700  0.70871200  0.21791000  1
  C  391  1  0.40420900  0.72274600  0.21106000  1
  C  392  1  0.40469900  0.74183300  0.18861400  1
  C  393  1  0.43567700  0.74669500  0.17357400  1
  C  394  1  0.56264900  0.73039900  0.15709000  1
  C  395  1  0.59429700  0.71688600  0.16346800  1
  C  396  1  0.59600400  0.69726600  0.18540700  1
  C  397  1  0.56519600  0.69178700  0.20081600  1
  C  398  1  0.50834100  0.70739900  0.24141600  1
  C  399  1  0.50948200  0.68785800  0.26372800  1
  C  400  1  0.49479900  0.64843500  0.23050500  1
  C  401  1  0.49356100  0.66739700  0.20770800  1
  C  402  1  0.48859300  0.61968100  0.22589400  1
  C  403  1  0.48134100  0.60952200  0.19899500  1
  C  404  1  0.47998300  0.62777900  0.17588100  1
  C  405  1  0.48606700  0.65655700  0.18067700  1
  C  406  1  0.51489800  0.73600100  0.24759600  1
  C  407  1  0.52253700  0.74537900  0.27494700  1
  C  408  1  0.52409500  0.72539100  0.29657500  1
  C  409  1  0.51743800  0.69707100  0.29108200  1
  C  422  1  0.50048800  0.69831600  0.21173600  1
  C  423  1  0.50279100  0.65764200  0.25940600  1
  C  426  1  0.49910300  0.73930100  0.16432900  1
  C  429  1  0.62922300  0.68208900  0.19150900  1
  C  432  1  0.37167100  0.71832300  0.22768800  1
  C  435  1  0.47271300  0.61688900  0.14718200  1
  C  438  1  0.52961300  0.77548100  0.28084800  1
  C  441  1  0.97738700  0.07931600  0.19412600  1
  C  442  1  0.00370100  0.06455200  0.20858100  1
  C  444  1  0.98820600  0.02169100  0.18618600  1
  C  445  1  0.96044000  0.03504000  0.17158500  1
  C  446  1  0.95520400  0.06397800  0.17611200  1
  C  448  1  0.99516700  0.99305700  0.18186500  1
  C  449  1  0.03058300  0.95309700  0.19178300  1
  C  450  1  0.01136600  0.93629900  0.17307800  1
  C  451  1  0.98293700  0.94882700  0.15888000  1
  C  454  1  0.97439700  0.97732000  0.16291200  1
  C  455  1  0.94653400  0.99056700  0.14853900  1
  C  456  1  0.93962300  0.01927900  0.15282600  1
  C  467  1  0.97736600  0.92139600  0.61546300  1
  C  468  1  0.00364800  0.93617800  0.60098800  1
  C  470  1  0.98814600  0.97902200  0.62341200  1
  C  471  1  0.96040800  0.96565400  0.63803000  1
  C  472  1  0.95517000  0.93671900  0.63348000  1
  C  474  1  0.99509900  0.00765600  0.62774700  1
  C  475  1  0.03047500  0.04763700  0.61782200  1
  C  476  1  0.01127700  0.06441500  0.63655800  1
  C  477  1  0.98288900  0.05186200  0.65078400  1
  C  480  1  0.97435300  0.02337100  0.64673300  1
  C  481  1  0.94652400  0.01010400  0.66112800  1
  C  482  1  0.93961800  0.98139300  0.65682300  1
  C  493  1  0.97736600  0.71105200  0.98376100  1
  C  494  1  0.00364900  0.69657200  0.96898700  1
  C  496  1  0.98817500  0.71899600  0.92613700  1
  C  497  1  0.96042600  0.73361100  0.93949500  1
  C  498  1  0.95518100  0.72907100  0.96842900  1
  C  500  1  0.99513800  0.72332500  0.89750400  1
  C  501  1  0.03054000  0.71340300  0.85753700  1
  C  502  1  0.01133000  0.73211800  0.84074500  1
  C  503  1  0.98292900  0.74633900  0.85328600  1
  C  506  1  0.97438400  0.74229700  0.88177700  1
  C  507  1  0.94654200  0.75668600  0.89503200  1
  C  508  1  0.93962600  0.75238900  0.92374300  1
  C  519  1  0.97726900  0.28968300  0.82584500  1
  C  520  1  0.00354100  0.30418100  0.84061800  1
  C  522  1  0.98808800  0.28175200  0.88347100  1
  C  523  1  0.96035600  0.26711600  0.87011500  1
  C  524  1  0.95510200  0.27165400  0.84117900  1
  C  526  1  0.99506200  0.27742500  0.91210200  1
  C  527  1  0.03046900  0.28736200  0.95206400  1
  C  528  1  0.01128100  0.26863200  0.96885700  1
  C  529  1  0.98289500  0.25439000  0.95631800  1
  C  532  1  0.97433700  0.25843400  0.92782900  1
  C  533  1  0.94650500  0.24402700  0.91457700  1
  C  534  1  0.93958100  0.24832200  0.88586700  1
  C  545  1  0.49938300  0.57940400  0.68965200  1
  C  546  1  0.52369900  0.56154600  0.70274800  1
  C  548  1  0.49715800  0.52103400  0.68263400  1
  C  549  1  0.47156400  0.53776900  0.66902500  1
  C  550  1  0.47300900  0.56707900  0.67298300  1
  C  552  1  0.49670800  0.49169600  0.67958700  1
  C  553  1  0.52195300  0.44742200  0.69075600  1
  C  554  1  0.49718200  0.43288200  0.67439300  1
  C  555  1  0.47123200  0.44906900  0.66080500  1
  C  558  1  0.47064800  0.47859600  0.66294800  1
  C  559  1  0.44528500  0.49531200  0.64923900  1
  C  560  1  0.44576900  0.52471800  0.65222700  1
  C  571  1  0.49939900  0.42133100  0.11997100  1
  C  572  1  0.52371500  0.43919100  0.10687600  1
  C  574  1  0.49716300  0.47970000  0.12698700  1
  C  575  1  0.47156700  0.46296300  0.14059100  1
  C  576  1  0.47301400  0.43365400  0.13662700  1
  C  578  1  0.49671000  0.50904000  0.13003400  1
  C  579  1  0.52195100  0.55331400  0.11887100  1
  C  580  1  0.49718200  0.56785100  0.13523900  1
  C  581  1  0.47122900  0.55166200  0.14881800  1
  C  584  1  0.47064800  0.52213800  0.14667500  1
  C  585  1  0.44528500  0.50541800  0.16038100  1
  C  586  1  0.44576900  0.47601100  0.15738600  1
  C  597  1  0.49942000  0.21554000  0.48383900  1
  C  598  1  0.52373600  0.20244600  0.46598100  1
  C  600  1  0.49718400  0.22255100  0.42546900  1
  C  601  1  0.47158500  0.23615600  0.44220600  1
  C  602  1  0.47303500  0.23219500  0.47151600  1
  C  604  1  0.49673100  0.22559600  0.39613100  1
  C  605  1  0.52197400  0.21443000  0.35185700  1
  C  606  1  0.49720200  0.23079200  0.33731700  1
  C  607  1  0.47124500  0.24437200  0.35350600  1
  C  610  1  0.47066600  0.24223300  0.38303000  1
  C  611  1  0.44530000  0.25593800  0.39974800  1
  C  612  1  0.44578700  0.25294700  0.42915500  1
  C  623  1  0.49935900  0.78521700  0.32577000  1
  C  624  1  0.52368900  0.79829800  0.34362800  1
  C  626  1  0.49714700  0.77818000  0.38413900  1
  C  627  1  0.47154600  0.76458000  0.36740200  1
  C  628  1  0.47298600  0.76854700  0.33809300  1
  C  630  1  0.49670200  0.77512700  0.41347700  1
  C  631  1  0.52195100  0.78628700  0.45774900  1
  C  632  1  0.49718400  0.76991600  0.47228800  1
  C  633  1  0.47122400  0.75634500  0.45610100  1
  C  636  1  0.47064000  0.75848800  0.42657700  1
  C  637  1  0.44527200  0.74478600  0.40985900  1
  C  638  1  0.44575100  0.74778200  0.38045200  1
  C  649  1  0.81697600  0.20453200  0.12878400  1
  C  650  1  0.78862100  0.21612300  0.11392000  1
  C  652  1  0.76383300  0.23524200  0.15561700  1
  C  653  1  0.79154200  0.22392300  0.17193200  1
  C  654  1  0.81789800  0.20842600  0.15805000  1
  C  656  1  0.73672100  0.25061600  0.16849900  1
  C  657  1  0.68355200  0.27669800  0.16408200  1
  C  658  1  0.68242700  0.28186900  0.19309700  1
  C  659  1  0.70963300  0.27092600  0.20977300  1
  C  662  1  0.73708000  0.25501100  0.19789100  1
  C  663  1  0.76472900  0.24378200  0.21411400  1
  C  664  1  0.79176700  0.22828300  0.20121600  1
  C  675  1  0.81702400  0.79618000  0.68080700  1
  C  676  1  0.78867100  0.78459600  0.69567900  1
  C  678  1  0.76385700  0.76549600  0.65398500  1
  C  679  1  0.79155800  0.77681500  0.63766400  1
  C  680  1  0.81792700  0.79229900  0.65154000  1
  C  682  1  0.73672900  0.75013200  0.64110600  1
  C  683  1  0.68354700  0.72406900  0.64553000  1
  C  684  1  0.68239300  0.71891100  0.61651200  1
  C  685  1  0.70960900  0.72984100  0.59983800  1
  C  688  1  0.73706400  0.74575000  0.61171400  1
  C  689  1  0.76471300  0.75697200  0.59548500  1
  C  690  1  0.79176200  0.77246700  0.60837600  1
  C  701  1  0.81701300  0.77636700  0.10899200  1
  C  702  1  0.78866000  0.79123900  0.12057800  1
  C  704  1  0.76384700  0.74954500  0.13968100  1
  C  705  1  0.79155300  0.73322400  0.12837000  1
  C  706  1  0.81792100  0.74710000  0.11288200  1
  C  708  1  0.73672100  0.73667000  0.15504700  1
  C  709  1  0.68354200  0.74109700  0.18111100  1
  C  710  1  0.68238700  0.71207900  0.18627300  1
  C  711  1  0.70960900  0.69540500  0.17535100  1
  C  714  1  0.73706400  0.70727800  0.15944000  1
  C  715  1  0.76471600  0.69104900  0.14822300  1
  C  716  1  0.79176500  0.70394100  0.13272800  1
  C  727  1  0.81698400  0.22441500  0.70070000  1
  C  728  1  0.78862100  0.20954100  0.68913000  1
  C  730  1  0.76386000  0.25122000  0.66995200  1
  C  731  1  0.79158700  0.26753900  0.68123400  1
  C  732  1  0.81794200  0.25367100  0.69674300  1
  C  734  1  0.73674800  0.26409100  0.65456600  1
  C  735  1  0.68355000  0.25966000  0.62852800  1
  C  736  1  0.68245300  0.28866500  0.62329400  1
  C  737  1  0.70968800  0.30534100  0.63418800  1
  C  740  1  0.73712700  0.29347400  0.65011800  1
  C  741  1  0.76480200  0.30970100  0.66130400  1
  C  742  1  0.79183600  0.29681600  0.67682100  1
  C  753  1  0.18178000  0.78999100  0.12814700  1
  C  754  1  0.21015600  0.77728300  0.11426100  1
  C  756  1  0.23537200  0.76220200  0.15741100  1
  C  757  1  0.20769200  0.77484300  0.17276000  1
  C  758  1  0.18108700  0.78884300  0.15764400  1
  C  760  1  0.26267000  0.74816500  0.17149900  1
  C  761  1  0.31597800  0.72200700  0.16919000  1
  C  762  1  0.31744700  0.71963800  0.19855500  1
  C  763  1  0.29029300  0.73192500  0.21431500  1
  C  766  1  0.26258400  0.74650000  0.20117200  1
  C  767  1  0.23496900  0.75904300  0.21644200  1
  C  768  1  0.20770400  0.77316400  0.20232000  1
  C  779  1  0.18176600  0.21072600  0.68141800  1
  C  780  1  0.21014700  0.22341700  0.69531300  1
  C  782  1  0.23537700  0.23850600  0.65217200  1
  C  783  1  0.20769500  0.22588000  0.63681500  1
  C  784  1  0.18108100  0.21188300  0.65192100  1
  C  786  1  0.26268600  0.25254400  0.63809500  1
  C  787  1  0.31600400  0.27868400  0.64042100  1
  C  788  1  0.31748900  0.28105800  0.61105600  1
  C  789  1  0.29032200  0.26879600  0.59529100  1
  C  792  1  0.26260500  0.25422100  0.60842300  1
  C  793  1  0.23498700  0.24169500  0.59314300  1
  C  794  1  0.20771600  0.22757000  0.60725600  1
  C  805  1  0.18174900  0.22372400  0.11518800  1
  C  806  1  0.21012400  0.20982700  0.12788900  1
  C  808  1  0.23536200  0.25297200  0.14296500  1
  C  809  1  0.20768300  0.26832700  0.13033400  1
  C  810  1  0.18106800  0.25322100  0.11633700  1
  C  812  1  0.26267300  0.26705200  0.15699800  1
  C  813  1  0.31598900  0.26472800  0.18314400  1
  C  814  1  0.31748100  0.29409300  0.18550500  1
  C  815  1  0.29031400  0.30985800  0.17323800  1
  C  818  1  0.26259700  0.29672400  0.15866700  1
  C  819  1  0.23497900  0.31200100  0.14613700  1
  C  820  1  0.20770700  0.29788900  0.13201700  1
  C  831  1  0.18180900  0.77699000  0.69447900  1
  C  832  1  0.21019000  0.79088100  0.68178200  1
  C  834  1  0.23537600  0.74773400  0.66666667  1
  C  835  1  0.20767900  0.73238500  0.67927300  1
  C  836  1  0.18108100  0.74749600  0.69328500  1
  C  838  1  0.26266800  0.73364900  0.65260900  1
  C  839  1  0.31599400  0.73596100  0.62647500  1
  C  840  1  0.31743400  0.70659800  0.62406400  1
  C  841  1  0.29025600  0.69083800  0.63632000  1
  C  844  1  0.26255800  0.70397800  0.65090700  1
  C  845  1  0.23492200  0.68870700  0.66342000  1
  C  846  1  0.20766600  0.70282600  0.67755600  1
  C  857  1  0.26772600  0.41622700  0.32557700  1
  C  858  1  0.26646200  0.43902000  0.34452400  1
  C  859  1  0.20019500  0.43985600  0.34146400  1
  C  860  1  0.20067400  0.41669600  0.32293000  1
  C  861  1  0.16829700  0.40684500  0.31210200  1
  C  862  1  0.13601300  0.41967500  0.31868800  1
  C  863  1  0.13624000  0.44244700  0.33740400  1
  C  864  1  0.16784700  0.45224800  0.34879000  1
  C  865  1  0.29793800  0.44961100  0.35596100  1
  C  866  1  0.33040300  0.43746400  0.34936900  1
  C  867  1  0.33238400  0.41465900  0.33076800  1
  C  868  1  0.30095700  0.40467800  0.31882400  1
  C  869  1  0.23403200  0.37348500  0.32415800  1
  C  870  1  0.23721500  0.35060200  0.30545500  1
  C  871  1  0.23782500  0.38360800  0.26415300  1
  C  872  1  0.23671800  0.40700800  0.28235900  1
  C  873  1  0.23830600  0.38782100  0.23492400  1
  C  874  1  0.23713200  0.41486700  0.22361200  1
  C  875  1  0.23635400  0.43858900  0.24113500  1
  C  876  1  0.23643800  0.43420800  0.27036200  1
  C  877  1  0.23284100  0.36780300  0.35332200  1
  C  878  1  0.23630400  0.34045800  0.36418800  1
  C  879  1  0.24060500  0.31827000  0.34506400  1
  C  880  1  0.24017400  0.32316000  0.31613900  1
  C  893  1  0.23469700  0.40336900  0.31375000  1
  C  894  1  0.23867700  0.35447100  0.27471900  1
  C  897  1  0.23283800  0.45193700  0.35324000  1
  C  900  1  0.36638200  0.40033000  0.32525900  1
  C  903  1  0.10290300  0.41060500  0.30484800  1
  C  906  1  0.23353700  0.46741100  0.22932900  1
  C  909  1  0.23822400  0.33546800  0.39498400  1
  C  912  1  0.26777900  0.00271590  0.90224600  1
  C  913  1  0.26651900  0.97992100  0.88330100  1
  C  914  1  0.20025000  0.97909100  0.88634200  1
  C  915  1  0.20072300  0.00225190  0.90487500  1
  C  916  1  0.16834700  0.01210090  0.91570100  1
  C  917  1  0.13606500  0.99926600  0.90911100  1
  C  918  1  0.13629300  0.97650400  0.89038400  1
  C  919  1  0.16790500  0.96669700  0.87901300  1
  C  920  1  0.29799800  0.96932600  0.87187100  1
  C  921  1  0.33046200  0.98146900  0.87847100  1
  C  922  1  0.33243900  0.00427590  0.89707100  1
  C  923  1  0.30100900  0.01426290  0.90900500  1
  C  924  1  0.23408700  0.04545990  0.90365200  1
  C  925  1  0.23725200  0.06834690  0.92235400  1
  C  926  1  0.23785400  0.03534290  0.96365900  1
  C  927  1  0.23675600  0.01193990  0.94545600  1
  C  928  1  0.23831700  0.03113190  0.99289000  1
  C  929  1  0.23713100  0.00408590  0.00420290  1
  C  930  1  0.23636200  0.98036500  0.98668200  1
  C  931  1  0.23647600  0.98474100  0.95745300  1
  C  932  1  0.23293000  0.05114090  0.87448800  1
  C  933  1  0.23634800  0.07848990  0.86362200  1
  C  934  1  0.24061800  0.10068100  0.88274700  1
  C  935  1  0.24020400  0.09578790  0.91167100  1
  C  948  1  0.23474600  0.01557590  0.91406300  1
  C  949  1  0.23870700  0.06447790  0.95309100  1
  C  952  1  0.23289800  0.96700500  0.87457800  1
  C  955  1  0.36643800  0.01860190  0.90258900  1
  C  958  1  0.10295600  0.00832590  0.92295600  1
  C  961  1  0.23353700  0.95154300  0.99848900  1
  C  964  1  0.23826100  0.08348190  0.83282400  1
  C  967  1  0.26775900  0.99780600  0.32066800  1
  C  968  1  0.26649700  0.97885300  0.34345700  1
  C  969  1  0.20022900  0.98191800  0.34430400  1
  C  970  1  0.20070500  0.00045590  0.32114700  1
  C  971  1  0.16832900  0.01128490  0.31130000  1
  C  972  1  0.13604700  0.00469190  0.32413200  1
  C  973  1  0.13627400  0.98597100  0.34689700  1
  C  974  1  0.16788600  0.97460400  0.35670800  1
  C  975  1  0.29797500  0.96741000  0.35403900  1
  C  976  1  0.33044100  0.97402000  0.34190400  1
  C  977  1  0.33241300  0.99261000  0.31909000  1
  C  978  1  0.30098800  0.00456490  0.30911900  1
  C  979  1  0.23405500  0.99923400  0.27793100  1
  C  980  1  0.23722200  0.01794290  0.25505100  1
  C  981  1  0.23784500  0.05923790  0.28806600  1
  C  982  1  0.23674900  0.04102690  0.31146300  1
  C  983  1  0.23832000  0.08846690  0.29228700  1
  C  984  1  0.23713800  0.09977090  0.31933600  1
  C  985  1  0.23638400  0.08224390  0.34305300  1
  C  986  1  0.23648300  0.05301690  0.33866500  1
  C  987  1  0.23286400  0.97007200  0.27224400  1
  C  988  1  0.23631700  0.95921100  0.24489700  1
  C  989  1  0.24060900  0.97834000  0.22271100  1
  C  990  1  0.24017200  0.00726390  0.22760600  1
  C  1003  1  0.23472500  0.00963790  0.30781700  1
  C  1004  1  0.23868800  0.04867790  0.25892700  1
  C  1007  1  0.23287700  0.97013900  0.35637800  1
  C  1010  1  0.36640900  0.99812000  0.30475700  1
  C  1013  1  0.10293200  0.01852490  0.31505700  1
  C  1016  1  0.23357100  0.09403790  0.37188100  1
  C  1019  1  0.23823800  0.92841600  0.23990000  1
  C  1022  1  0.26774100  0.42113500  0.90715800  1
  C  1023  1  0.26647500  0.44008200  0.88436300  1
  C  1024  1  0.20020800  0.43703300  0.88353800  1
  C  1025  1  0.20068700  0.41850200  0.90670100  1
  C  1026  1  0.16831000  0.40768600  0.91656200  1
  C  1027  1  0.13602300  0.41428400  0.90374200  1
  C  1028  1  0.13625100  0.43298900  0.88096100  1
  C  1029  1  0.16786000  0.44435200  0.87114200  1
  C  1030  1  0.29795300  0.45150400  0.87375900  1
  C  1031  1  0.33042100  0.44490200  0.88589600  1
  C  1032  1  0.33240000  0.42631200  0.90871000  1
  C  1033  1  0.30097300  0.41438100  0.91870300  1
  C  1034  1  0.23405800  0.41973000  0.94990400  1
  C  1035  1  0.23723300  0.40103000  0.97279100  1
  C  1036  1  0.23781400  0.35972200  0.93979100  1
  C  1037  1  0.23671800  0.37792500  0.91638800  1
  C  1038  1  0.23827500  0.33049200  0.93558400  1
  C  1039  1  0.23706200  0.31917700  0.90854000  1
  C  1040  1  0.23630900  0.33669600  0.88481500  1
  C  1041  1  0.23643500  0.36592400  0.88918900  1
  C  1042  1  0.23288800  0.44889600  0.95558400  1
  C  1043  1  0.23629800  0.45976300  0.98293000  1
  C  1044  1  0.24059800  0.44064300  0.00512290  1
  C  1045  1  0.24021600  0.41171900  0.00022990  1
  C  1058  1  0.23471000  0.40931700  0.92002100  1
  C  1059  1  0.23867800  0.37029300  0.96892600  1
  C  1062  1  0.23285100  0.44880200  0.87145100  1
  C  1065  1  0.36640300  0.42080000  0.92303200  1
  C  1068  1  0.10290600  0.40046800  0.91283600  1
  C  1071  1  0.23348200  0.32488200  0.85599600  1
  C  1074  1  0.23815800  0.49056100  0.98792400  1
  C  1077  1  0.76842000  0.91954800  0.81866100  1
  C  1078  1  0.76740400  0.94188000  0.83817500  1
  C  1079  1  0.70270700  0.93361600  0.84631300  1
  C  1080  1  0.70296100  0.91114600  0.82693900  1
  C  1081  1  0.67122000  0.89636400  0.82226800  1
  C  1082  1  0.63981300  0.90322000  0.83629200  1
  C  1083  1  0.64029700  0.92567200  0.85537400  1
  C  1084  1  0.67127800  0.94070500  0.86024400  1
  C  1085  1  0.79824700  0.95720000  0.84394200  1
  C  1086  1  0.82990300  0.95080700  0.83044600  1
  C  1087  1  0.83160700  0.92887800  0.81081500  1
  C  1088  1  0.80079700  0.91347100  0.80533200  1
  C  1089  1  0.74394900  0.87286600  0.82094800  1
  C  1090  1  0.74509300  0.85055500  0.80140900  1
  C  1091  1  0.73040300  0.88377300  0.76198400  1
  C  1092  1  0.72915900  0.90657200  0.78094600  1
  C  1093  1  0.72419100  0.88838400  0.73323000  1
  C  1094  1  0.71693200  0.91528200  0.72307300  1
  C  1095  1  0.71557800  0.93839700  0.74132800  1
  C  1096  1  0.72165700  0.93360200  0.77010600  1
  C  1097  1  0.75050400  0.86668700  0.84955200  1
  C  1098  1  0.75815100  0.83933800  0.85892900  1
  C  1099  1  0.75971600  0.81771000  0.83894200  1
  C  1100  1  0.75305700  0.82320100  0.81062100  1
  C  1113  1  0.73609100  0.90254700  0.81186300  1
  C  1114  1  0.73840200  0.85487500  0.77119100  1
  C  1117  1  0.73470400  0.94995200  0.85284800  1
  C  1120  1  0.86482100  0.92278300  0.79563400  1
  C  1123  1  0.60727400  0.88659000  0.83187600  1
  C  1126  1  0.70830900  0.96709500  0.73043400  1
  C  1129  1  0.76522700  0.83343700  0.88903000  1
  C  1132  1  0.76844600  0.49940000  0.40916900  1
  C  1133  1  0.76743300  0.47706900  0.38965200  1
  C  1134  1  0.70273600  0.48533100  0.38151000  1
  C  1135  1  0.70298700  0.50780000  0.40088700  1
  C  1136  1  0.67124100  0.52257300  0.40556400  1
  C  1137  1  0.63983600  0.51572100  0.39153200  1
  C  1138  1  0.64033100  0.49328100  0.37243800  1
  C  1139  1  0.67130900  0.47824000  0.36757800  1
  C  1140  1  0.79827800  0.46175600  0.38388300  1
  C  1141  1  0.82992900  0.46813800  0.39739500  1
  C  1142  1  0.83163400  0.49007600  0.41701800  1
  C  1143  1  0.80082000  0.50547900  0.42250000  1
  C  1144  1  0.74396800  0.54608100  0.40688500  1
  C  1145  1  0.74510400  0.56839100  0.42642500  1
  C  1146  1  0.73042100  0.53516600  0.46584600  1
  C  1147  1  0.72918300  0.51237100  0.44688400  1
  C  1148  1  0.72420600  0.53055300  0.49460000  1
  C  1149  1  0.71695500  0.50365300  0.50475600  1
  C  1150  1  0.71560200  0.48054000  0.48649700  1
  C  1151  1  0.72168300  0.48533900  0.45772200  1
  C  1152  1  0.75052800  0.55226200  0.37828200  1
  C  1153  1  0.75816900  0.57961400  0.36890700  1
  C  1154  1  0.75972700  0.60124000  0.38889600  1
  C  1155  1  0.75306400  0.59574400  0.41721600  1
  C  1168  1  0.73611500  0.51639800  0.41596600  1
  C  1169  1  0.73841300  0.56406600  0.45664300  1
  C  1172  1  0.73473800  0.46899800  0.37497600  1
  C  1175  1  0.86484800  0.49617500  0.43219900  1
  C  1178  1  0.60729200  0.53233800  0.39596000  1
  C  1181  1  0.70833200  0.45184000  0.49738700  1
  C  1184  1  0.76524700  0.58551700  0.33880700  1
  C  1187  1  0.76845400  0.50473400  0.82399100  1
  C  1188  1  0.76743900  0.48521600  0.84632000  1
  C  1189  1  0.70274100  0.47707100  0.83805100  1
  C  1190  1  0.70299500  0.49645400  0.81558500  1
  C  1191  1  0.67125200  0.50112900  0.80080900  1
  C  1192  1  0.63984700  0.48709400  0.80765500  1
  C  1193  1  0.64033900  0.46799600  0.83009200  1
  C  1194  1  0.67131500  0.46313600  0.84513600  1
  C  1195  1  0.79828100  0.47944900  0.86163700  1
  C  1196  1  0.82993200  0.49295500  0.85525300  1
  C  1197  1  0.83163900  0.51258000  0.83331700  1
  C  1198  1  0.80082800  0.51806300  0.81791200  1
  C  1199  1  0.74398100  0.50245100  0.77730800  1
  C  1200  1  0.74512000  0.52199400  0.75499800  1
  C  1201  1  0.73042600  0.56141300  0.78822300  1
  C  1202  1  0.72919100  0.54244900  0.81102000  1
  C  1203  1  0.72421200  0.59016500  0.79283600  1
  C  1204  1  0.71695500  0.60031900  0.81973600  1
  C  1205  1  0.71560200  0.58206200  0.84284800  1
  C  1206  1  0.72169100  0.55328700  0.83805100  1
  C  1207  1  0.75054100  0.47384900  0.77112600  1
  C  1208  1  0.75818500  0.46447500  0.74377500  1
  C  1209  1  0.75974200  0.48446500  0.72214900  1
  C  1210  1  0.75308000  0.51278500  0.72764500  1
  C  1223  1  0.73612200  0.51153200  0.80699000  1
  C  1224  1  0.73842300  0.55221000  0.75932200  1
  C  1227  1  0.73474000  0.47053900  0.85438900  1
  C  1230  1  0.86485800  0.52775300  0.82721400  1
  C  1233  1  0.60730500  0.49152100  0.79103100  1
  C  1236  1  0.70832700  0.59295000  0.87154800  1
  C  1239  1  0.76526300  0.43437600  0.73787200  1
  C  1242  1  0.76841800  0.91422200  0.40384400  1
  C  1243  1  0.76740200  0.93373600  0.38151100  1
  C  1244  1  0.70270400  0.94187400  0.38977300  1
  C  1245  1  0.70295800  0.92249800  0.41224300  1
  C  1246  1  0.67121500  0.91782000  0.42701800  1
  C  1247  1  0.63980700  0.93185400  0.42016800  1
  C  1248  1  0.64029700  0.95094100  0.39772200  1
  C  1249  1  0.67127500  0.95580300  0.38268200  1
  C  1250  1  0.79824700  0.93950700  0.36619800  1
  C  1251  1  0.82989500  0.92599400  0.37257600  1
  C  1252  1  0.83160200  0.90637400  0.39451500  1
  C  1253  1  0.80079400  0.90089500  0.40992400  1
  C  1254  1  0.74393900  0.91650700  0.45052400  1
  C  1255  1  0.74508000  0.89696600  0.47283600  1
  C  1256  1  0.73039700  0.85754300  0.43961300  1
  C  1257  1  0.72915900  0.87650500  0.41681600  1
  C  1258  1  0.72419100  0.82878900  0.43500200  1
  C  1259  1  0.71693900  0.81863000  0.40810300  1
  C  1260  1  0.71558100  0.83688700  0.38498900  1
  C  1261  1  0.72166500  0.86566500  0.38978500  1
  C  1262  1  0.75049600  0.94510900  0.45670400  1
  C  1263  1  0.75813500  0.95448700  0.48405500  1
  C  1264  1  0.75969300  0.93449900  0.50568300  1
  C  1265  1  0.75303600  0.90617900  0.50019000  1
  C  1278  1  0.73608600  0.90742400  0.42084400  1
  C  1279  1  0.73838900  0.86675000  0.46851400  1
  C  1282  1  0.73470100  0.94840900  0.37343700  1
  C  1285  1  0.86482100  0.89119700  0.40061700  1
  C  1288  1  0.60726900  0.92743100  0.43679600  1
  C  1291  1  0.70831100  0.82599700  0.35629000  1
  C  1294  1  0.76521100  0.98458900  0.48995600  1
  C  1297  1  0.21298500  0.28842400  0.40323400  1
  C  1298  1  0.23929900  0.27366000  0.41768900  1
  C  1300  1  0.22380400  0.23079900  0.39529400  1
  C  1301  1  0.19603800  0.24414800  0.38069300  1
  C  1302  1  0.19080200  0.27308600  0.38522000  1
  C  1304  1  0.23076500  0.20216500  0.39097300  1
  C  1305  1  0.26618100  0.16220500  0.40089100  1
  C  1306  1  0.24696400  0.14540700  0.38218600  1
  C  1307  1  0.21853500  0.15793500  0.36798800  1
  C  1310  1  0.20999500  0.18642800  0.37202000  1
  C  1311  1  0.18213200  0.19967500  0.35764700  1
  C  1312  1  0.17522100  0.22838700  0.36193400  1
  C  1323  1  0.21296400  0.13050400  0.82457100  1
  C  1324  1  0.23924600  0.14528600  0.81009600  1
  C  1326  1  0.22374400  0.18813000  0.83252000  1
  C  1327  1  0.19600600  0.17476200  0.84713800  1
  C  1328  1  0.19076800  0.14582700  0.84258800  1
  C  1330  1  0.23069700  0.21676400  0.83685500  1
  C  1331  1  0.26607300  0.25674500  0.82693000  1
  C  1332  1  0.24687500  0.27352300  0.84566600  1
  C  1333  1  0.21848700  0.26097000  0.85989200  1
  C  1336  1  0.20995100  0.23247900  0.85584100  1
  C  1337  1  0.18212200  0.21921200  0.87023600  1
  C  1338  1  0.17521600  0.19050100  0.86593100  1
  C  1349  1  0.21296400  0.92016000  0.19286900  1
  C  1350  1  0.23924700  0.90568000  0.17809500  1
  C  1352  1  0.22377300  0.92810400  0.13524500  1
  C  1353  1  0.19602400  0.94271900  0.14860300  1
  C  1354  1  0.19077900  0.93817900  0.17753700  1
  C  1356  1  0.23073600  0.93243300  0.10661200  1
  C  1357  1  0.26613800  0.92251100  0.06664490  1
  C  1358  1  0.24692800  0.94122600  0.04985290  1
  C  1359  1  0.21852700  0.95544700  0.06239390  1
  C  1362  1  0.20998200  0.95140500  0.09088490  1
  C  1363  1  0.18214000  0.96579400  0.10414000  1
  C  1364  1  0.17522400  0.96149700  0.13285100  1
  C  1375  1  0.21286700  0.49879100  0.03495290  1
  C  1376  1  0.23913900  0.51328900  0.04972590  1
  C  1378  1  0.22368600  0.49086000  0.09257890  1
  C  1379  1  0.19595400  0.47622400  0.07922290  1
  C  1380  1  0.19070000  0.48076200  0.05028690  1
  C  1382  1  0.23066000  0.48653300  0.12121000  1
  C  1383  1  0.26606700  0.49647000  0.16117200  1
  C  1384  1  0.24687900  0.47774000  0.17796500  1
  C  1385  1  0.21849300  0.46349800  0.16542600  1
  C  1388  1  0.20993500  0.46754200  0.13693700  1
  C  1389  1  0.18210300  0.45313500  0.12368500  1
  C  1390  1  0.17517900  0.45743000  0.09497490  1
  C  1401  1  0.73498100  0.78851200  0.89876000  1
  C  1402  1  0.75929700  0.77065400  0.91185600  1
  C  1404  1  0.73275600  0.73014200  0.89174200  1
  C  1405  1  0.70716200  0.74687700  0.87813300  1
  C  1406  1  0.70860700  0.77618700  0.88209100  1
  C  1408  1  0.73230600  0.70080400  0.88869500  1
  C  1409  1  0.75755100  0.65653000  0.89986400  1
  C  1410  1  0.73278000  0.64199000  0.88350100  1
  C  1411  1  0.70683000  0.65817700  0.86991300  1
  C  1414  1  0.70624600  0.68770400  0.87205600  1
  C  1415  1  0.68088300  0.70442000  0.85834700  1
  C  1416  1  0.68136700  0.73382600  0.86133500  1
  C  1427  1  0.73499700  0.63043900  0.32907900  1
  C  1428  1  0.75931300  0.64829900  0.31598400  1
  C  1430  1  0.73276100  0.68880800  0.33609500  1
  C  1431  1  0.70716500  0.67207100  0.34969900  1
  C  1432  1  0.70861200  0.64276200  0.34573500  1
  C  1434  1  0.73230800  0.71814800  0.33914200  1
  C  1435  1  0.75754900  0.76242200  0.32797900  1
  C  1436  1  0.73278000  0.77695900  0.34434700  1
  C  1437  1  0.70682700  0.76077000  0.35792600  1
  C  1440  1  0.70624600  0.73124600  0.35578300  1
  C  1441  1  0.68088300  0.71452600  0.36948900  1
  C  1442  1  0.68136700  0.68511900  0.36649400  1
  C  1453  1  0.73501800  0.42464800  0.69294700  1
  C  1454  1  0.75933400  0.41155400  0.67508900  1
  C  1456  1  0.73278200  0.43165900  0.63457700  1
  C  1457  1  0.70718300  0.44526400  0.65131400  1
  C  1458  1  0.70863300  0.44130300  0.68062400  1
  C  1460  1  0.73232900  0.43470400  0.60523900  1
  C  1461  1  0.75757200  0.42353800  0.56096500  1
  C  1462  1  0.73280000  0.43990000  0.54642500  1
  C  1463  1  0.70684300  0.45348000  0.56261400  1
  C  1466  1  0.70626400  0.45134100  0.59213800  1
  C  1467  1  0.68089800  0.46504600  0.60885600  1
  C  1468  1  0.68138500  0.46205500  0.63826300  1
  C  1479  1  0.73495700  0.99432500  0.53487800  1
  C  1480  1  0.75928700  0.00740590  0.55273600  1
  C  1482  1  0.73274500  0.98728800  0.59324700  1
  C  1483  1  0.70714400  0.97368800  0.57651000  1
  C  1484  1  0.70858400  0.97765500  0.54720100  1
  C  1486  1  0.73230000  0.98423500  0.62258500  1
  C  1487  1  0.75754900  0.99539500  0.66685700  1
  C  1488  1  0.73278200  0.97902400  0.68139600  1
  C  1489  1  0.70682200  0.96545300  0.66520900  1
  C  1492  1  0.70623800  0.96759600  0.63568500  1
  C  1493  1  0.68087000  0.95389400  0.61896700  1
  C  1494  1  0.68134900  0.95689000  0.58956000  1
  C  1505  1  0.05257380  0.41364000  0.33789200  1
  C  1506  1  0.02421880  0.42523100  0.32302800  1
  C  1508  1  0.99943100  0.44435000  0.36472500  1
  C  1509  1  0.02713980  0.43303100  0.38104000  1
  C  1510  1  0.05349580  0.41753400  0.36715800  1
  C  1512  1  0.97231900  0.45972400  0.37760700  1
  C  1513  1  0.91915000  0.48580600  0.37319000  1
  C  1514  1  0.91802500  0.49097700  0.40220500  1
  C  1515  1  0.94523100  0.48003400  0.41888100  1
  C  1518  1  0.97267800  0.46411900  0.40699900  1
  C  1519  1  0.00032678  0.45289000  0.42322200  1
  C  1520  1  0.02736480  0.43739100  0.41032400  1
  C  1531  1  0.05262180  0.00528790  0.88991500  1
  C  1532  1  0.02426880  0.99370400  0.90478700  1
  C  1534  1  0.99945500  0.97460400  0.86309300  1
  C  1535  1  0.02715580  0.98592300  0.84677200  1
  C  1536  1  0.05352480  0.00140690  0.86064800  1
  C  1538  1  0.97232700  0.95924000  0.85021400  1
  C  1539  1  0.91914500  0.93317700  0.85463800  1
  C  1540  1  0.91799100  0.92801900  0.82562000  1
  C  1541  1  0.94520700  0.93894900  0.80894600  1
  C  1544  1  0.97266200  0.95485800  0.82082200  1
  C  1545  1  0.00031078  0.96608000  0.80459300  1
  C  1546  1  0.02735980  0.98157500  0.81748400  1
  C  1557  1  0.05261080  0.98547500  0.31810000  1
  C  1558  1  0.02425780  0.00034690  0.32968600  1
  C  1560  1  0.99944500  0.95865300  0.34878900  1
  C  1561  1  0.02715080  0.94233200  0.33747800  1
  C  1562  1  0.05351880  0.95620800  0.32199000  1
  C  1564  1  0.97231900  0.94577800  0.36415500  1
  C  1565  1  0.91914000  0.95020500  0.39021900  1
  C  1566  1  0.91798500  0.92118700  0.39538100  1
  C  1567  1  0.94520700  0.90451300  0.38445900  1
  C  1570  1  0.97266200  0.91638600  0.36854800  1
  C  1571  1  0.00031378  0.90015700  0.35733100  1
  C  1572  1  0.02736280  0.91304900  0.34183600  1
  C  1583  1  0.05258180  0.43352300  0.90980800  1
  C  1584  1  0.02421880  0.41864900  0.89823800  1
  C  1586  1  0.99945800  0.46032800  0.87906000  1
  C  1587  1  0.02718480  0.47664700  0.89034200  1
  C  1588  1  0.05353980  0.46277900  0.90585100  1
  C  1590  1  0.97234600  0.47319900  0.86367400  1
  C  1591  1  0.91914800  0.46876800  0.83763600  1
  C  1592  1  0.91805100  0.49777300  0.83240200  1
  C  1593  1  0.94528600  0.51444900  0.84329600  1
  C  1596  1  0.97272500  0.50258200  0.85922600  1
  C  1597  1  0.00039978  0.51880900  0.87041200  1
  C  1598  1  0.02743380  0.50592400  0.88592900  1
  C  1609  1  0.41737800  0.99909900  0.33725500  1
  C  1610  1  0.44575400  0.98639100  0.32336900  1
  C  1612  1  0.47097000  0.97131000  0.36651900  1
  C  1613  1  0.44329000  0.98395100  0.38186800  1
  C  1614  1  0.41668500  0.99795100  0.36675200  1
  C  1616  1  0.49826800  0.95727300  0.38060700  1
  C  1617  1  0.55157600  0.93111500  0.37829800  1
  C  1618  1  0.55304500  0.92874600  0.40766300  1
  C  1619  1  0.52589100  0.94103300  0.42342300  1
  C  1622  1  0.49818200  0.95560800  0.41028000  1
  C  1623  1  0.47056700  0.96815100  0.42555000  1
  C  1624  1  0.44330200  0.98227200  0.41142800  1
  C  1635  1  0.41736400  0.41983400  0.89052600  1
  C  1636  1  0.44574500  0.43252500  0.90442100  1
  C  1638  1  0.47097500  0.44761400  0.86128000  1
  C  1639  1  0.44329300  0.43498800  0.84592300  1
  C  1640  1  0.41667900  0.42099100  0.86102900  1
  C  1642  1  0.49828400  0.46165200  0.84720300  1
  C  1643  1  0.55160200  0.48779200  0.84952900  1
  C  1644  1  0.55308700  0.49016600  0.82016400  1
  C  1645  1  0.52592000  0.47790400  0.80439900  1
  C  1648  1  0.49820300  0.46332900  0.81753100  1
  C  1649  1  0.47058500  0.45080300  0.80225100  1
  C  1650  1  0.44331400  0.43667800  0.81636400  1
  C  1661  1  0.41734700  0.43283200  0.32429600  1
  C  1662  1  0.44572200  0.41893500  0.33699700  1
  C  1664  1  0.47096000  0.46208000  0.35207300  1
  C  1665  1  0.44328100  0.47743500  0.33944200  1
  C  1666  1  0.41666600  0.46232900  0.32544500  1
  C  1668  1  0.49827100  0.47616000  0.36610600  1
  C  1669  1  0.55158700  0.47383600  0.39225200  1
  C  1670  1  0.55307900  0.50320100  0.39461300  1
  C  1671  1  0.52591200  0.51896600  0.38234600  1
  C  1674  1  0.49819500  0.50583200  0.36777500  1
  C  1675  1  0.47057700  0.52110900  0.35524500  1
  C  1676  1  0.44330500  0.50699700  0.34112500  1
  C  1687  1  0.41740700  0.98609800  0.90358700  1
  C  1688  1  0.44578800  0.99998900  0.89089000  1
  C  1690  1  0.47097400  0.95684200  0.87576700  1
  C  1691  1  0.44327700  0.94149300  0.88838100  1
  C  1692  1  0.41667900  0.95660400  0.90239300  1
  C  1694  1  0.49826600  0.94275700  0.86171700  1
  C  1695  1  0.55159200  0.94506900  0.83558300  1
  C  1696  1  0.55303200  0.91570600  0.83317200  1
  C  1697  1  0.52585400  0.89994600  0.84542800  1
  C  1700  1  0.49815600  0.91308600  0.86001500  1
  C  1701  1  0.47052000  0.89781500  0.87252800  1
  C  1702  1  0.44326400  0.91193400  0.88666400  1
  N  443  1  0.00833900  0.03685100  0.20404900  1
  N  453  1  0.02211500  0.98036400  0.19542300  1
  N  463  1  0.02244500  0.90827700  0.16909800  1
  N  465  1  0.97425300  0.10866400  0.19787100  1
  N  469  1  0.00826900  0.96388000  0.60552600  1
  N  479  1  0.02201600  0.02036900  0.61417100  1
  N  489  1  0.02236200  0.09242900  0.64057300  1
  N  491  1  0.97426700  0.89204300  0.61172300  1
  N  495  1  0.00829400  0.70111800  0.94129000  1
  N  505  1  0.02207000  0.70975600  0.88480400  1
  N  515  1  0.02241500  0.73611400  0.81272700  1
  N  517  1  0.97425100  0.70731600  0.01311100  1
  N  521  1  0.00818800  0.29964500  0.86831600  1
  N  531  1  0.02198600  0.29100900  0.92479800  1
  N  541  1  0.02239800  0.26461500  0.99686300  1
  N  543  1  0.97414900  0.29341600  0.79649400  1
  N  547  1  0.52187000  0.53353400  0.69883100  1
  N  557  1  0.52100300  0.47566000  0.69274600  1
  N  567  1  0.49990900  0.40319500  0.67358600  1
  N  569  1  0.50138300  0.60862300  0.69448600  1
  N  573  1  0.52188000  0.46720300  0.11079200  1
  N  583  1  0.52100300  0.52507800  0.11687800  1
  N  593  1  0.49989900  0.59754000  0.13603700  1
  N  595  1  0.50140700  0.39211300  0.11513300  1
  N  599  1  0.52190400  0.20636000  0.43796700  1
  N  609  1  0.52102700  0.21244100  0.38009300  1
  N  619  1  0.49991700  0.23158700  0.30763000  1
  N  621  1  0.50142200  0.21070100  0.51305800  1
  N  625  1  0.52186400  0.79437600  0.37164000  1
  N  635  1  0.52099800  0.78828200  0.42951300  1
  N  645  1  0.49989600  0.76913000  0.50197700  1
  N  647  1  0.50136700  0.79004500  0.29655200  1
  N  651  1  0.76355900  0.23084900  0.12752900  1
  N  661  1  0.71015100  0.26153300  0.15299700  1
  N  671  1  0.65717600  0.29966000  0.20550900  1
  N  673  1  0.84156200  0.18758800  0.11442800  1
  N  677  1  0.76359500  0.76987900  0.68207400  1
  N  687  1  0.71016400  0.73921300  0.65661300  1
  N  697  1  0.65716300  0.70109900  0.60410800  1
  N  699  1  0.84160400  0.81312800  0.69516700  1
  N  703  1  0.76358200  0.77763400  0.13528900  1
  N  713  1  0.71015400  0.75217800  0.16596100  1
  N  723  1  0.65715500  0.69967700  0.20408500  1
  N  725  1  0.84159400  0.79072400  0.09204300  1
  N  729  1  0.76356100  0.22313900  0.67439200  1
  N  739  1  0.71015400  0.24858500  0.64369200  1
  N  749  1  0.65717800  0.30105500  0.60551100  1
  N  751  1  0.84158800  0.21007000  0.71763500  1
  N  755  1  0.23543500  0.76400100  0.12903900  1
  N  765  1  0.28917000  0.73595700  0.15690900  1
  N  775  1  0.34325000  0.70356000  0.21245700  1
  N  777  1  0.15673300  0.80508000  0.11234900  1
  N  781  1  0.23543400  0.23669800  0.68054400  1
  N  791  1  0.28918600  0.26474100  0.65269300  1
  N  801  1  0.34328100  0.29715700  0.59716500  1
  N  803  1  0.15672100  0.19563000  0.69721200  1
  N  807  1  0.23541600  0.22459900  0.14116300  1
  N  817  1  0.28917000  0.25245400  0.16920000  1
  N  827  1  0.34327300  0.30798700  0.20160200  1
  N  829  1  0.15670700  0.20792900  0.10009000  1
  N  833  1  0.23546100  0.77610600  0.66848900  1
  N  843  1  0.28918800  0.74824000  0.64043100  1
  N  853  1  0.34325800  0.69270700  0.60799900  1
  N  855  1  0.15674700  0.79278400  0.70955600  1
  N  1299  1  0.24393700  0.24595900  0.41315700  1
  N  1309  1  0.25771300  0.18947200  0.40453100  1
  N  1319  1  0.25804300  0.11738500  0.37820600  1
  N  1321  1  0.20985100  0.31777200  0.40697900  1
  N  1325  1  0.24386700  0.17298800  0.81463400  1
  N  1335  1  0.25761400  0.22947700  0.82327900  1
  N  1345  1  0.25796000  0.30153700  0.84968100  1
  N  1347  1  0.20986500  0.10115100  0.82083100  1
  N  1351  1  0.24389200  0.91022600  0.15039800  1
  N  1361  1  0.25766800  0.91886400  0.09391190  1
  N  1371  1  0.25801300  0.94522200  0.02183490  1
  N  1373  1  0.20984900  0.91642400  0.22221900  1
  N  1377  1  0.24378600  0.50875300  0.07742390  1
  N  1387  1  0.25758400  0.50011700  0.13390600  1
  N  1397  1  0.25799600  0.47372300  0.20597100  1
  N  1399  1  0.20974700  0.50252400  0.00560190  1
  N  1403  1  0.75746800  0.74264200  0.90793900  1
  N  1413  1  0.75660100  0.68476800  0.90185400  1
  N  1423  1  0.73550700  0.61230300  0.88269400  1
  N  1425  1  0.73698100  0.81773100  0.90359400  1
  N  1429  1  0.75747800  0.67631100  0.31990000  1
  N  1439  1  0.75660100  0.73418600  0.32598600  1
  N  1449  1  0.73549700  0.80664800  0.34514500  1
  N  1451  1  0.73700500  0.60122100  0.32424100  1
  N  1455  1  0.75750200  0.41546800  0.64707500  1
  N  1465  1  0.75662500  0.42154900  0.58920100  1
  N  1475  1  0.73551500  0.44069500  0.51673800  1
  N  1477  1  0.73702000  0.41980900  0.72216600  1
  N  1481  1  0.75746200  0.00348390  0.58074800  1
  N  1491  1  0.75659600  0.99739000  0.63862100  1
  N  1501  1  0.73549400  0.97823800  0.71108500  1
  N  1503  1  0.73696500  0.99915300  0.50566000  1
  N  1507  1  0.99915700  0.43995700  0.33663700  1
  N  1517  1  0.94574900  0.47064100  0.36210500  1
  N  1527  1  0.89277400  0.50876800  0.41461700  1
  N  1529  1  0.07715980  0.39669600  0.32353600  1
  N  1533  1  0.99919300  0.97898700  0.89118200  1
  N  1543  1  0.94576200  0.94832100  0.86572100  1
  N  1553  1  0.89276100  0.91020700  0.81321600  1
  N  1555  1  0.07720180  0.02223590  0.90427500  1
  N  1559  1  0.99918000  0.98674200  0.34439700  1
  N  1569  1  0.94575200  0.96128600  0.37506900  1
  N  1579  1  0.89275300  0.90878500  0.41319300  1
  N  1581  1  0.07719180  0.99983200  0.30115100  1
  N  1585  1  0.99915900  0.43224700  0.88350000  1
  N  1595  1  0.94575200  0.45769300  0.85280000  1
  N  1605  1  0.89277600  0.51016300  0.81461900  1
  N  1607  1  0.07718580  0.41917800  0.92674300  1
  N  1611  1  0.47103300  0.97310900  0.33814700  1
  N  1621  1  0.52476800  0.94506500  0.36601700  1
  N  1631  1  0.57884800  0.91266800  0.42156500  1
  N  1633  1  0.39233100  0.01418790  0.32145700  1
  N  1637  1  0.47103200  0.44580600  0.88965200  1
  N  1647  1  0.52478400  0.47384900  0.86180100  1
  N  1657  1  0.57887900  0.50626500  0.80627300  1
  N  1659  1  0.39231900  0.40473800  0.90632000  1
  N  1663  1  0.47101400  0.43370700  0.35027100  1
  N  1673  1  0.52476800  0.46156200  0.37830800  1
  N  1683  1  0.57887100  0.51709500  0.41071000  1
  N  1685  1  0.39230500  0.41703700  0.30919800  1
  N  1689  1  0.47105900  0.98521400  0.87759700  1
  N  1699  1  0.52478600  0.95734800  0.84953900  1
  N  1709  1  0.57885600  0.90181500  0.81710700  1
  N  1711  1  0.39234500  0.00189190  0.91866400  1
  O  459  1  0.92561800  0.97593100  0.13069800  1
  O  461  1  0.91234600  0.03127800  0.13894300  1
  O  485  1  0.92562900  0.02471800  0.67900300  1
  O  487  1  0.91236700  0.96937400  0.67072600  1
  O  511  1  0.92563900  0.77454600  0.88040500  1
  O  513  1  0.91236200  0.76628400  0.93575000  1
  O  537  1  0.92562600  0.22615200  0.92920500  1
  O  539  1  0.91233100  0.23441000  0.87386200  1
  O  563  1  0.41948900  0.48344300  0.63355400  1
  O  565  1  0.42042600  0.54006700  0.63934000  1
  O  589  1  0.41948400  0.51728500  0.17606200  1
  O  591  1  0.42042900  0.46066000  0.17027300  1
  O  615  1  0.41949700  0.27161400  0.38787900  1
  O  617  1  0.42044200  0.26583000  0.44450400  1
  O  641  1  0.41946800  0.72910900  0.42172800  1
  O  643  1  0.42040000  0.73490300  0.36510300  1
  O  667  1  0.76525200  0.24692700  0.24242300  1
  O  669  1  0.81735900  0.21705800  0.21757700  1
  O  693  1  0.76522100  0.75384200  0.56717400  1
  O  695  1  0.81735300  0.78368600  0.59201200  1
  O  719  1  0.76522900  0.66273800  0.15136300  1
  O  721  1  0.81735600  0.68757400  0.12151500  1
  O  745  1  0.76534900  0.33800600  0.65811500  1
  O  747  1  0.81745000  0.31318100  0.68800300  1
  O  771  1  0.23466000  0.75848000  0.24492200  1
  O  773  1  0.18212200  0.78569100  0.21771300  1
  O  797  1  0.23468300  0.24226600  0.56466500  1
  O  799  1  0.18212600  0.21506100  0.59185500  1
  O  823  1  0.23468000  0.34048200  0.14670200  1
  O  825  1  0.18212200  0.31328700  0.11950100  1
  O  849  1  0.23459000  0.66022900  0.66282600  1
  O  851  1  0.18206600  0.68743100  0.69005800  1
  O  1315  1  0.16121600  0.18503900  0.33980600  1
  O  1317  1  0.14794400  0.24038600  0.34805100  1
  O  1341  1  0.16122700  0.23382600  0.88811100  1
  O  1343  1  0.14796500  0.17848200  0.87983400  1
  O  1367  1  0.16123700  0.98365400  0.08951290  1
  O  1369  1  0.14796000  0.97539200  0.14485800  1
  O  1393  1  0.16122400  0.43526000  0.13831300  1
  O  1395  1  0.14792900  0.44351800  0.08296990  1
  O  1419  1  0.65508700  0.69255100  0.84266200  1
  O  1421  1  0.65602400  0.74917500  0.84844800  1
  O  1445  1  0.65508200  0.72639300  0.38517000  1
  O  1447  1  0.65602700  0.66976800  0.37938100  1
  O  1471  1  0.65509500  0.48072200  0.59698700  1
  O  1473  1  0.65604000  0.47493800  0.65361200  1
  O  1497  1  0.65506600  0.93821700  0.63083600  1
  O  1499  1  0.65599800  0.94401100  0.57421100  1
  O  1523  1  0.00084978  0.45603500  0.45153100  1
  O  1525  1  0.05295680  0.42616600  0.42668500  1
  O  1549  1  0.00081878  0.96295000  0.77628200  1
  O  1551  1  0.05295080  0.99279400  0.80112000  1
  O  1575  1  0.00082678  0.87184600  0.36047100  1
  O  1577  1  0.05295380  0.89668200  0.33062300  1
  O  1601  1  0.00094678  0.54711400  0.86722300  1
  O  1603  1  0.05304780  0.52228900  0.89711100  1
  O  1627  1  0.47025800  0.96758800  0.45403000  1
  O  1629  1  0.41772000  0.99479900  0.42682100  1
  O  1653  1  0.47028100  0.45137400  0.77377300  1
  O  1655  1  0.41772400  0.42416900  0.80096300  1
  O  1679  1  0.47027800  0.54959000  0.35581000  1
  O  1681  1  0.41772000  0.52239500  0.32860900  1
  O  1705  1  0.47018800  0.86933700  0.87193400  1
  O  1707  1  0.41766400  0.89653900  0.89916600  1
