# generated using pymatgen
data_H19C30N6O
_symmetry_space_group_name_H-M   'P 1'
_cell_length_a   25.59410000
_cell_length_b   25.59410000
_cell_length_c   102.37700000
_cell_angle_alpha   90.00000000
_cell_angle_beta   90.00000000
_cell_angle_gamma   90.00000000
_symmetry_Int_Tables_number   1
_chemical_formula_structural   H19C30N6O
_chemical_formula_sum   'H456 C720 N144 O24'
_cell_volume   67062.86823958
_cell_formula_units_Z   24
loop_
 _symmetry_equiv_pos_site_id
 _symmetry_equiv_pos_as_xyz
  1  'x, y, z'
loop_
 _atom_site_type_symbol
 _atom_site_label
 _atom_site_symmetry_multiplicity
 _atom_site_fract_x
 _atom_site_fract_y
 _atom_site_fract_z
 _atom_site_occupancy
  H  49  1  0.08689900  0.70910400  0.14215800  1
  H  50  1  0.09762100  0.80216000  0.14149500  1
  H  51  1  0.92420400  0.72785800  0.13687900  1
  H  52  1  0.93513600  0.82042600  0.13635200  1
  H  53  1  0.01679400  0.83810200  0.11260500  1
  H  54  1  0.01589400  0.90754400  0.09500500  1
  H  55  1  0.02816300  0.98053300  0.13034300  1
  H  56  1  0.02309500  0.04587600  0.14643900  1
  H  57  1  0.02485100  0.83786400  0.16521700  1
  H  58  1  0.02684600  0.90847800  0.18263600  1
  H  59  1  0.10960900  0.03592900  0.18739300  1
  H  60  1  0.11551700  0.04299700  0.21061500  1
  H  61  1  0.95035000  0.99549400  0.19061200  1
  H  62  1  0.95617600  0.00189300  0.21392900  1
  H  63  1  0.02713500  0.11937000  0.18181200  1
  H  64  1  0.02848600  0.18858500  0.16421400  1
  H  65  1  0.02345100  0.11785900  0.09416900  1
  H  66  1  0.02511600  0.18856900  0.11157000  1
  H  67  1  0.95348000  0.22521700  0.14244200  1
  H  68  1  0.96440800  0.31821300  0.14187300  1
  H  69  1  0.11289700  0.20541300  0.13326100  1
  H  70  1  0.12402900  0.29775300  0.13255300  1
  H  71  1  0.09594800  0.99729500  0.08568400  1
  H  72  1  0.08509100  0.99448200  0.06242500  1
  H  73  1  0.92365300  0.02397500  0.06705700  1
  H  74  1  0.93471000  0.02633300  0.09020700  1
  H  79  1  0.08877900  0.38409300  0.13356700  1
  H  80  1  0.06587800  0.05665600  0.23130100  1
  H  81  1  0.96040000  0.64278400  0.14276600  1
  H  82  1  0.95921200  0.99676300  0.04584800  1
  H  131  1  0.31718000  0.08737700  0.64221400  1
  H  132  1  0.22415000  0.09826300  0.64155500  1
  H  133  1  0.29817500  0.92482100  0.63672900  1
  H  134  1  0.20562000  0.93591700  0.63620500  1
  H  135  1  0.18797700  0.01808300  0.61256400  1
  H  136  1  0.11848800  0.01781700  0.59497500  1
  H  137  1  0.04563200  0.02945100  0.63034400  1
  H  138  1  0.98035300  0.02344500  0.64645500  1
  H  139  1  0.18842900  0.02503500  0.66518400  1
  H  140  1  0.11789600  0.02683700  0.68262400  1
  H  141  1  0.99062500  0.10995100  0.68744100  1
  H  142  1  0.98364300  0.11573700  0.71066700  1
  H  143  1  0.03077700  0.95060000  0.69059200  1
  H  144  1  0.02446400  0.95630100  0.71391500  1
  H  145  1  0.90699700  0.02768100  0.68184800  1
  H  146  1  0.83771900  0.02910600  0.66426600  1
  H  147  1  0.90816900  0.02522300  0.59419800  1
  H  148  1  0.83753600  0.02617400  0.61162100  1
  H  149  1  0.80104700  0.95404300  0.64246700  1
  H  150  1  0.70804100  0.96489300  0.64190600  1
  H  151  1  0.82070700  0.11355000  0.63336600  1
  H  152  1  0.72836200  0.12460700  0.63266500  1
  H  153  1  0.02845000  0.09806300  0.58567300  1
  H  154  1  0.03161900  0.08717900  0.56241300  1
  H  155  1  0.00276500  0.92564600  0.56703800  1
  H  156  1  0.00005700  0.93671400  0.59017700  1
  H  161  1  0.64206900  0.08927800  0.63365400  1
  H  162  1  0.96996000  0.06598100  0.73134000  1
  H  163  1  0.38332500  0.96078300  0.64267200  1
  H  164  1  0.03040000  0.96106000  0.54587200  1
  H  213  1  0.94234900  0.70971300  0.88420400  1
  H  214  1  0.93242100  0.80289900  0.88479300  1
  H  215  1  0.10477000  0.72704900  0.89025000  1
  H  216  1  0.09465500  0.81969200  0.89069500  1
  H  217  1  0.01121200  0.83759400  0.91403400  1
  H  218  1  0.01151300  0.90659000  0.93172800  1
  H  219  1  0.00477700  0.98061100  0.89644000  1
  H  220  1  0.00849700  0.04611100  0.88047700  1
  H  221  1  0.00571500  0.83845000  0.86140700  1
  H  222  1  0.00387000  0.90943900  0.84407800  1
  H  223  1  0.91955800  0.03483000  0.84002400  1
  H  224  1  0.91077900  0.04092200  0.81689700  1
  H  225  1  0.07924500  0.99798600  0.83574000  1
  H  226  1  0.07064500  0.00350700  0.81245900  1
  H  227  1  0.00246000  0.12023200  0.84520300  1
  H  228  1  0.00117500  0.18909100  0.86288900  1
  H  229  1  0.00270200  0.11702300  0.93285600  1
  H  230  1  0.00210100  0.18803100  0.91554700  1
  H  231  1  0.07652700  0.22585200  0.88473200  1
  H  232  1  0.06483700  0.31873100  0.88525000  1
  H  233  1  0.91708900  0.20478800  0.89370400  1
  H  234  1  0.90519200  0.29707000  0.89436900  1
  H  235  1  0.92255500  0.99034000  0.93705400  1
  H  236  1  0.91412700  0.98612800  0.96019500  1
  H  237  1  0.07340100  0.02674400  0.96431200  1
  H  238  1  0.08160800  0.03043700  0.94100500  1
  H  243  1  0.93987100  0.38379300  0.89337000  1
  H  244  1  0.95126900  0.04694200  0.79570500  1
  H  245  1  0.06823000  0.64244000  0.88404800  1
  H  246  1  0.95145200  0.99088700  0.98149200  1
  H  295  1  0.71074100  0.08590100  0.38414100  1
  H  296  1  0.80386000  0.09622600  0.38468600  1
  H  297  1  0.72869000  0.92386400  0.39069400  1
  H  298  1  0.82130500  0.93437000  0.39110300  1
  H  299  1  0.83907500  0.02001800  0.41416100  1
  H  300  1  0.90823900  0.02187400  0.43181500  1
  H  301  1  0.98189700  0.02567300  0.39645100  1
  H  302  1  0.04724300  0.02054300  0.38046800  1
  H  303  1  0.83940700  0.02178000  0.36152300  1
  H  304  1  0.91020500  0.02308800  0.34414300  1
  H  305  1  0.03564100  0.10797000  0.33993000  1
  H  306  1  0.04153600  0.11640200  0.31679600  1
  H  307  1  0.99868600  0.94823700  0.33581600  1
  H  308  1  0.00401500  0.95649200  0.31252000  1
  H  309  1  0.12100800  0.02453200  0.34512800  1
  H  310  1  0.19006300  0.02640600  0.36276700  1
  H  311  1  0.11868100  0.03120800  0.43275500  1
  H  312  1  0.18950400  0.02967600  0.41541400  1
  H  313  1  0.22664900  0.95200300  0.38496100  1
  H  314  1  0.31960400  0.96318500  0.38545300  1
  H  315  1  0.20648600  0.11222400  0.39316300  1
  H  316  1  0.29882400  0.12361900  0.39380400  1
  H  317  1  0.99135200  0.11201400  0.43642800  1
  H  318  1  0.98772200  0.12329100  0.45950200  1
  H  319  1  0.02987500  0.96495900  0.46477000  1
  H  320  1  0.03295100  0.95387500  0.44153600  1
  H  325  1  0.38525100  0.08828900  0.39310900  1
  H  326  1  0.04751200  0.07556900  0.29565000  1
  H  327  1  0.64395200  0.95983700  0.38429900  1
  H  328  1  0.99339500  0.08867900  0.48112500  1
  H  335  1  0.06348100  0.07746500  0.27331800  1
  H  338  1  0.89617800  0.97941200  0.24533400  1
  H  339  1  0.87948300  0.91249400  0.24537400  1
  H  340  1  0.92274600  0.93688600  0.23338500  1
  H  350  1  0.94933800  0.06327800  0.77337100  1
  H  353  1  0.04726300  0.89615100  0.74529600  1
  H  354  1  0.11419100  0.87947900  0.74530000  1
  H  355  1  0.08968900  0.92278900  0.73333400  1
  H  365  1  0.94372400  0.98599900  0.00393900  1
  H  368  1  0.15173600  0.01358800  0.04131500  1
  H  369  1  0.19267200  0.01125900  0.02740600  1
  H  370  1  0.13990000  0.96725300  0.02882400  1
  H  380  1  0.04229000  0.94602100  0.50358100  1
  H  383  1  0.01848000  0.14967600  0.54118600  1
  H  384  1  0.01355800  0.19546100  0.52833000  1
  H  385  1  0.06056700  0.14513000  0.52749300  1
  H  395  1  0.94547400  0.47353000  0.14549000  1
  H  398  1  0.15047300  0.62419400  0.13966800  1
  H  399  1  0.19473300  0.57127900  0.13891100  1
  H  400  1  0.14337700  0.57040800  0.15040800  1
  H  410  1  0.55262700  0.94588500  0.64550600  1
  H  413  1  0.40203700  0.15113700  0.63964500  1
  H  414  1  0.45517800  0.19515000  0.63896800  1
  H  415  1  0.45561600  0.14367500  0.65043400  1
  H  425  1  0.08310200  0.47349900  0.88149800  1
  H  428  1  0.87902900  0.62503000  0.88723500  1
  H  429  1  0.83353100  0.57319800  0.88811800  1
  H  430  1  0.88437400  0.57105700  0.87648100  1
  H  440  1  0.47499200  0.94446200  0.38169000  1
  H  443  1  0.62235300  0.13950600  0.38414200  1
  H  444  1  0.58641200  0.19384800  0.38977600  1
  H  445  1  0.56066000  0.15436900  0.37714300  1
  H  497  1  0.39947100  0.02167600  0.17146200  1
  H  498  1  0.41019300  0.11473200  0.17079900  1
  H  499  1  0.23677600  0.04043000  0.16618300  1
  H  500  1  0.24770800  0.13299800  0.16565600  1
  H  501  1  0.32936600  0.15067400  0.14190900  1
  H  502  1  0.32846600  0.22011600  0.12430900  1
  H  503  1  0.34073500  0.29310500  0.15964700  1
  H  504  1  0.33566700  0.35844800  0.17574300  1
  H  505  1  0.33742300  0.15043600  0.19452100  1
  H  506  1  0.33941800  0.22105000  0.21194000  1
  H  507  1  0.42218100  0.34850100  0.21669700  1
  H  508  1  0.42808900  0.35556900  0.23991900  1
  H  509  1  0.26292200  0.30806600  0.21991600  1
  H  510  1  0.26874800  0.31446500  0.24323300  1
  H  511  1  0.33970700  0.43194200  0.21111600  1
  H  512  1  0.34105800  0.50115700  0.19351800  1
  H  513  1  0.33602300  0.43043100  0.12347300  1
  H  514  1  0.33768800  0.50114100  0.14087400  1
  H  515  1  0.26605200  0.53778900  0.17174600  1
  H  516  1  0.27698000  0.63078500  0.17117700  1
  H  517  1  0.42546900  0.51798500  0.16256500  1
  H  518  1  0.43660100  0.61032500  0.16185700  1
  H  519  1  0.40852000  0.30986700  0.11498800  1
  H  520  1  0.39766300  0.30705400  0.09172850  1
  H  521  1  0.23622500  0.33654700  0.09636050  1
  H  522  1  0.24728200  0.33890500  0.11951100  1
  H  527  1  0.40135100  0.69666500  0.16287100  1
  H  528  1  0.37845000  0.36922800  0.26060500  1
  H  529  1  0.27297200  0.95535600  0.17207000  1
  H  530  1  0.27178400  0.30933500  0.07515150  1
  H  579  1  0.62975200  0.39994900  0.67151800  1
  H  580  1  0.53672200  0.41083500  0.67085900  1
  H  581  1  0.61074700  0.23739300  0.66603300  1
  H  582  1  0.51819200  0.24848900  0.66550900  1
  H  583  1  0.50054900  0.33065500  0.64186800  1
  H  584  1  0.43106000  0.33038900  0.62427900  1
  H  585  1  0.35820400  0.34202300  0.65964800  1
  H  586  1  0.29292500  0.33601700  0.67575900  1
  H  587  1  0.50100100  0.33760700  0.69448800  1
  H  588  1  0.43046800  0.33940900  0.71192800  1
  H  589  1  0.30319700  0.42252300  0.71674500  1
  H  590  1  0.29621500  0.42830900  0.73997100  1
  H  591  1  0.34334900  0.26317200  0.71989600  1
  H  592  1  0.33703600  0.26887300  0.74321900  1
  H  593  1  0.21956900  0.34025300  0.71115200  1
  H  594  1  0.15029100  0.34167800  0.69357000  1
  H  595  1  0.22074100  0.33779500  0.62350200  1
  H  596  1  0.15010800  0.33874600  0.64092500  1
  H  597  1  0.11361900  0.26661500  0.67177100  1
  H  598  1  0.02061300  0.27746500  0.67121000  1
  H  599  1  0.13327900  0.42612200  0.66267000  1
  H  600  1  0.04093400  0.43717900  0.66196900  1
  H  601  1  0.34102200  0.41063500  0.61497700  1
  H  602  1  0.34419100  0.39975100  0.59171700  1
  H  603  1  0.31533700  0.23821800  0.59634200  1
  H  604  1  0.31262900  0.24928600  0.61948100  1
  H  609  1  0.95464100  0.40185000  0.66295800  1
  H  610  1  0.28253200  0.37855300  0.76064400  1
  H  611  1  0.69589700  0.27335500  0.67197600  1
  H  612  1  0.34297200  0.27363200  0.57517600  1
  H  661  1  0.25492100  0.02228500  0.91350800  1
  H  662  1  0.24499300  0.11547100  0.91409700  1
  H  663  1  0.41734200  0.03962100  0.91955400  1
  H  664  1  0.40722700  0.13226400  0.91999900  1
  H  665  1  0.32378400  0.15016600  0.94333800  1
  H  666  1  0.32408500  0.21916200  0.96103200  1
  H  667  1  0.31734900  0.29318300  0.92574400  1
  H  668  1  0.32106900  0.35868300  0.90978100  1
  H  669  1  0.31828700  0.15102200  0.89071100  1
  H  670  1  0.31644200  0.22201100  0.87338200  1
  H  671  1  0.23213000  0.34740200  0.86932800  1
  H  672  1  0.22335100  0.35349400  0.84620100  1
  H  673  1  0.39181700  0.31055800  0.86504400  1
  H  674  1  0.38321700  0.31607900  0.84176300  1
  H  675  1  0.31503200  0.43280400  0.87450700  1
  H  676  1  0.31374700  0.50166300  0.89219300  1
  H  677  1  0.31527400  0.42959500  0.96216000  1
  H  678  1  0.31467300  0.50060300  0.94485100  1
  H  679  1  0.38909900  0.53842400  0.91403600  1
  H  680  1  0.37740900  0.63130300  0.91455400  1
  H  681  1  0.22966100  0.51736000  0.92300800  1
  H  682  1  0.21776400  0.60964200  0.92367300  1
  H  683  1  0.23512700  0.30291200  0.96635800  1
  H  684  1  0.22669900  0.29870000  0.98949900  1
  H  685  1  0.38597300  0.33931600  0.99361600  1
  H  686  1  0.39418000  0.34300900  0.97030900  1
  H  691  1  0.25244300  0.69636500  0.92267400  1
  H  692  1  0.26384100  0.35951400  0.82500900  1
  H  693  1  0.38080200  0.95501200  0.91335200  1
  H  694  1  0.26402400  0.30345900  0.01079550  1
  H  743  1  0.02331300  0.39847300  0.41344500  1
  H  744  1  0.11643200  0.40879800  0.41399000  1
  H  745  1  0.04126200  0.23643600  0.41999800  1
  H  746  1  0.13387700  0.24694200  0.42040700  1
  H  747  1  0.15164700  0.33259000  0.44346500  1
  H  748  1  0.22081100  0.33444600  0.46111900  1
  H  749  1  0.29446900  0.33824500  0.42575500  1
  H  750  1  0.35981500  0.33311500  0.40977200  1
  H  751  1  0.15197900  0.33435200  0.39082700  1
  H  752  1  0.22277700  0.33566000  0.37344700  1
  H  753  1  0.34821300  0.42054200  0.36923400  1
  H  754  1  0.35410800  0.42897400  0.34610000  1
  H  755  1  0.31125800  0.26080900  0.36512000  1
  H  756  1  0.31658700  0.26906400  0.34182400  1
  H  757  1  0.43358000  0.33710400  0.37443200  1
  H  758  1  0.50263500  0.33897800  0.39207100  1
  H  759  1  0.43125300  0.34378000  0.46205900  1
  H  760  1  0.50207600  0.34224800  0.44471800  1
  H  761  1  0.53922100  0.26457500  0.41426500  1
  H  762  1  0.63217600  0.27575700  0.41475700  1
  H  763  1  0.51905800  0.42479600  0.42246700  1
  H  764  1  0.61139600  0.43619100  0.42310800  1
  H  765  1  0.30392400  0.42458600  0.46573200  1
  H  766  1  0.30029400  0.43586300  0.48880600  1
  H  767  1  0.34244700  0.27753100  0.49407400  1
  H  768  1  0.34552300  0.26644700  0.47084000  1
  H  773  1  0.69782300  0.40086100  0.42241300  1
  H  774  1  0.36008400  0.38814100  0.32495400  1
  H  775  1  0.95652400  0.27240900  0.41360300  1
  H  776  1  0.30596700  0.40125100  0.51042900  1
  H  783  1  0.37605300  0.39003700  0.30262200  1
  H  786  1  0.20875000  0.29198400  0.27463800  1
  H  787  1  0.19205500  0.22506600  0.27467800  1
  H  788  1  0.23531800  0.24945800  0.26268900  1
  H  798  1  0.26191000  0.37585000  0.80267500  1
  H  801  1  0.35983500  0.20872300  0.77460000  1
  H  802  1  0.42676300  0.19205100  0.77460400  1
  H  803  1  0.40226100  0.23536100  0.76263800  1
  H  813  1  0.25629600  0.29857100  0.03324250  1
  H  816  1  0.46430800  0.32616000  0.07061850  1
  H  817  1  0.50524400  0.32383100  0.05670950  1
  H  818  1  0.45247200  0.27982500  0.05812750  1
  H  828  1  0.35486200  0.25859300  0.53288500  1
  H  831  1  0.33105200  0.46224800  0.57049000  1
  H  832  1  0.32613000  0.50803300  0.55763400  1
  H  833  1  0.37313900  0.45770200  0.55679700  1
  H  843  1  0.25804600  0.78610200  0.17479400  1
  H  846  1  0.46304500  0.93676600  0.16897200  1
  H  847  1  0.50730500  0.88385100  0.16821500  1
  H  848  1  0.45594900  0.88298000  0.17971200  1
  H  858  1  0.86519900  0.25845700  0.67481000  1
  H  861  1  0.71460900  0.46370900  0.66894900  1
  H  862  1  0.76775000  0.50772200  0.66827200  1
  H  863  1  0.76818800  0.45624700  0.67973800  1
  H  873  1  0.39567400  0.78607100  0.91080200  1
  H  876  1  0.19160100  0.93760200  0.91653900  1
  H  877  1  0.14610300  0.88577000  0.91742200  1
  H  878  1  0.19694600  0.88362900  0.90578500  1
  H  888  1  0.78756400  0.25703400  0.41099400  1
  H  891  1  0.93492500  0.45207800  0.41344600  1
  H  892  1  0.89898400  0.50642000  0.41908000  1
  H  893  1  0.87323200  0.46694100  0.40644700  1
  H  945  1  0.71204300  0.33424800  0.20076500  1
  H  946  1  0.72276500  0.42730400  0.20010200  1
  H  947  1  0.54934800  0.35300200  0.19548600  1
  H  948  1  0.56028000  0.44557000  0.19495900  1
  H  949  1  0.64193800  0.46324600  0.17121200  1
  H  950  1  0.64103800  0.53268800  0.15361200  1
  H  951  1  0.65330700  0.60567700  0.18895000  1
  H  952  1  0.64823900  0.67102000  0.20504600  1
  H  953  1  0.64999500  0.46300800  0.22382400  1
  H  954  1  0.65199000  0.53362200  0.24124300  1
  H  955  1  0.73475300  0.66107300  0.24600000  1
  H  956  1  0.74066100  0.66814100  0.26922200  1
  H  957  1  0.57549400  0.62063800  0.24921900  1
  H  958  1  0.58132000  0.62703700  0.27253600  1
  H  959  1  0.65227900  0.74451400  0.24041900  1
  H  960  1  0.65363000  0.81372900  0.22282100  1
  H  961  1  0.64859500  0.74300300  0.15277600  1
  H  962  1  0.65026000  0.81371300  0.17017700  1
  H  963  1  0.57862400  0.85036100  0.20104900  1
  H  964  1  0.58955200  0.94335700  0.20048000  1
  H  965  1  0.73804100  0.83055700  0.19186800  1
  H  966  1  0.74917300  0.92289700  0.19116000  1
  H  967  1  0.72109200  0.62243900  0.14429100  1
  H  968  1  0.71023500  0.61962600  0.12103200  1
  H  969  1  0.54879700  0.64911900  0.12566400  1
  H  970  1  0.55985400  0.65147700  0.14881400  1
  H  975  1  0.71392300  0.00923708  0.19217400  1
  H  976  1  0.69102200  0.68180000  0.28990800  1
  H  977  1  0.58554400  0.26792800  0.20137300  1
  H  978  1  0.58435600  0.62190700  0.10445500  1
  H  1027  1  0.94232400  0.71252100  0.70082100  1
  H  1028  1  0.84929400  0.72340700  0.70016200  1
  H  1029  1  0.92331900  0.54996500  0.69533600  1
  H  1030  1  0.83076400  0.56106100  0.69481200  1
  H  1031  1  0.81312100  0.64322700  0.67117100  1
  H  1032  1  0.74363200  0.64296100  0.65358200  1
  H  1033  1  0.67077600  0.65459500  0.68895100  1
  H  1034  1  0.60549700  0.64858900  0.70506200  1
  H  1035  1  0.81357300  0.65017900  0.72379100  1
  H  1036  1  0.74304000  0.65198100  0.74123100  1
  H  1037  1  0.61576900  0.73509500  0.74604800  1
  H  1038  1  0.60878700  0.74088100  0.76927400  1
  H  1039  1  0.65592100  0.57574400  0.74919900  1
  H  1040  1  0.64960800  0.58144500  0.77252200  1
  H  1041  1  0.53214100  0.65282500  0.74045500  1
  H  1042  1  0.46286300  0.65425000  0.72287300  1
  H  1043  1  0.53331300  0.65036700  0.65280500  1
  H  1044  1  0.46268000  0.65131800  0.67022800  1
  H  1045  1  0.42619100  0.57918700  0.70107400  1
  H  1046  1  0.33318500  0.59003700  0.70051300  1
  H  1047  1  0.44585100  0.73869400  0.69197300  1
  H  1048  1  0.35350600  0.74975100  0.69127200  1
  H  1049  1  0.65359400  0.72320700  0.64428000  1
  H  1050  1  0.65676300  0.71232300  0.62102000  1
  H  1051  1  0.62790900  0.55079000  0.62564500  1
  H  1052  1  0.62520100  0.56185800  0.64878400  1
  H  1057  1  0.26721300  0.71442200  0.69226100  1
  H  1058  1  0.59510400  0.69112500  0.78994700  1
  H  1059  1  0.00846908  0.58592700  0.70127900  1
  H  1060  1  0.65554400  0.58620400  0.60447900  1
  H  1109  1  0.56749300  0.33485700  0.94281100  1
  H  1110  1  0.55756500  0.42804300  0.94340000  1
  H  1111  1  0.72991400  0.35219300  0.94885700  1
  H  1112  1  0.71979900  0.44483600  0.94930200  1
  H  1113  1  0.63635600  0.46273800  0.97264100  1
  H  1114  1  0.63665700  0.53173400  0.99033500  1
  H  1115  1  0.62992100  0.60575500  0.95504700  1
  H  1116  1  0.63364100  0.67125500  0.93908400  1
  H  1117  1  0.63085900  0.46359400  0.92001400  1
  H  1118  1  0.62901400  0.53458300  0.90268500  1
  H  1119  1  0.54470200  0.65997400  0.89863100  1
  H  1120  1  0.53592300  0.66606600  0.87550400  1
  H  1121  1  0.70438900  0.62313000  0.89434700  1
  H  1122  1  0.69578900  0.62865100  0.87106600  1
  H  1123  1  0.62760400  0.74537600  0.90381000  1
  H  1124  1  0.62631900  0.81423500  0.92149600  1
  H  1125  1  0.62784600  0.74216700  0.99146300  1
  H  1126  1  0.62724500  0.81317500  0.97415400  1
  H  1127  1  0.70167100  0.85099600  0.94333900  1
  H  1128  1  0.68998100  0.94387500  0.94385700  1
  H  1129  1  0.54223300  0.82993200  0.95231100  1
  H  1130  1  0.53033600  0.92221400  0.95297600  1
  H  1131  1  0.54769900  0.61548400  0.99566100  1
  H  1132  1  0.53927100  0.61127200  0.01880200  1
  H  1133  1  0.69854500  0.65188800  0.02291900  1
  H  1134  1  0.70675200  0.65558100  0.99961200  1
  H  1139  1  0.56501500  0.00893708  0.95197700  1
  H  1140  1  0.57641300  0.67208600  0.85431200  1
  H  1141  1  0.69337400  0.26758400  0.94265500  1
  H  1142  1  0.57659600  0.61603100  0.04009900  1
  H  1191  1  0.33588500  0.71104500  0.44274800  1
  H  1192  1  0.42900400  0.72137000  0.44329300  1
  H  1193  1  0.35383400  0.54900800  0.44930100  1
  H  1194  1  0.44644900  0.55951400  0.44971000  1
  H  1195  1  0.46421900  0.64516200  0.47276800  1
  H  1196  1  0.53338300  0.64701800  0.49042200  1
  H  1197  1  0.60704100  0.65081700  0.45505800  1
  H  1198  1  0.67238700  0.64568700  0.43907500  1
  H  1199  1  0.46455100  0.64692400  0.42013000  1
  H  1200  1  0.53534900  0.64823200  0.40275000  1
  H  1201  1  0.66078500  0.73311400  0.39853700  1
  H  1202  1  0.66666667  0.74154600  0.37540300  1
  H  1203  1  0.62383000  0.57338100  0.39442300  1
  H  1204  1  0.62915900  0.58163600  0.37112700  1
  H  1205  1  0.74615200  0.64967600  0.40373500  1
  H  1206  1  0.81520700  0.65155000  0.42137400  1
  H  1207  1  0.74382500  0.65635200  0.49136200  1
  H  1208  1  0.81464800  0.65482000  0.47402100  1
  H  1209  1  0.85179300  0.57714700  0.44356800  1
  H  1210  1  0.94474800  0.58832900  0.44406000  1
  H  1211  1  0.83163000  0.73736800  0.45177000  1
  H  1212  1  0.92396800  0.74876300  0.45241100  1
  H  1213  1  0.61649600  0.73715800  0.49503500  1
  H  1214  1  0.61286600  0.74843500  0.51810900  1
  H  1215  1  0.65501900  0.59010300  0.52337700  1
  H  1216  1  0.65809500  0.57901900  0.50014300  1
  H  1221  1  0.01039510  0.71343300  0.45171600  1
  H  1222  1  0.67265600  0.70071300  0.35425700  1
  H  1223  1  0.26909600  0.58498100  0.44290600  1
  H  1224  1  0.61853900  0.71382300  0.53973200  1
  H  1231  1  0.68862500  0.70260900  0.33192500  1
  H  1234  1  0.52132200  0.60455600  0.30394100  1
  H  1235  1  0.50462700  0.53763800  0.30398100  1
  H  1236  1  0.54789000  0.56203000  0.29199200  1
  H  1246  1  0.57448200  0.68842200  0.83197800  1
  H  1249  1  0.67240700  0.52129500  0.80390300  1
  H  1250  1  0.73933500  0.50462300  0.80390700  1
  H  1251  1  0.71483300  0.54793300  0.79194100  1
  H  1261  1  0.56886800  0.61114300  0.06254600  1
  H  1264  1  0.77688000  0.63873200  0.09992200  1
  H  1265  1  0.81781600  0.63640300  0.08601300  1
  H  1266  1  0.76504400  0.59239700  0.08743100  1
  H  1276  1  0.66743400  0.57116500  0.56218800  1
  H  1279  1  0.64362400  0.77482000  0.59979300  1
  H  1280  1  0.63870200  0.82060500  0.58693700  1
  H  1281  1  0.68571100  0.77027400  0.58610000  1
  H  1291  1  0.57061800  0.09867410  0.20409700  1
  H  1294  1  0.77561700  0.24933800  0.19827500  1
  H  1295  1  0.81987700  0.19642300  0.19751800  1
  H  1296  1  0.76852100  0.19555200  0.20901500  1
  H  1306  1  0.17777100  0.57102900  0.70411300  1
  H  1309  1  0.02718110  0.77628100  0.69825200  1
  H  1310  1  0.08032210  0.82029400  0.69757500  1
  H  1311  1  0.08076010  0.76881900  0.70904100  1
  H  1321  1  0.70824600  0.09864310  0.94010500  1
  H  1324  1  0.50417300  0.25017400  0.94584200  1
  H  1325  1  0.45867500  0.19834200  0.94672500  1
  H  1326  1  0.50951800  0.19620100  0.93508800  1
  H  1336  1  0.10013600  0.56960600  0.44029700  1
  H  1339  1  0.24749700  0.76465000  0.44274900  1
  H  1340  1  0.21155600  0.81899200  0.44838300  1
  H  1341  1  0.18580400  0.77951300  0.43575000  1
  C  1  1  0.01920100  0.87732200  0.11438000  1
  C  2  1  0.01877600  0.91520600  0.10477500  1
  C  3  1  0.02220400  0.96412700  0.11077800  1
  C  5  1  0.02247400  0.90205800  0.12652500  1
  C  6  1  0.02277400  0.87580200  0.13880800  1
  C  7  1  0.02419400  0.90145600  0.15113400  1
  C  9  1  0.02522900  0.96399000  0.16656100  1
  C  10  1  0.02593800  0.91548700  0.17281400  1
  C  11  1  0.02479200  0.87707600  0.16334100  1
  C  12  1  0.02584300  0.01367000  0.17280000  1
  C  13  1  0.02529300  0.06242200  0.16603300  1
  C  15  1  0.02551300  0.12452900  0.15027000  1
  C  16  1  0.02692500  0.14934400  0.16242100  1
  C  17  1  0.02628000  0.11149700  0.17203000  1
  C  18  1  0.02638700  0.15076100  0.13798800  1
  C  19  1  0.02535200  0.12501200  0.12567400  1
  C  21  1  0.02340600  0.06250800  0.11028500  1
  C  22  1  0.02384700  0.11094400  0.10400000  1
  C  23  1  0.02503400  0.14936500  0.11346000  1
  C  24  1  0.02192900  0.01288800  0.10404900  1
  C  25  1  0.01640300  0.01222000  0.09013500  1
  C  26  1  0.96675700  0.01998700  0.08443500  1
  C  27  1  0.96038800  0.01854100  0.07078400  1
  C  28  1  0.00335100  0.00943800  0.06235600  1
  C  29  1  0.05312600  0.00195600  0.06812800  1
  C  30  1  0.05957700  0.00331600  0.08181400  1
  C  31  1  0.03214100  0.20645900  0.13793400  1
  C  32  1  0.98962100  0.24029800  0.14042300  1
  C  33  1  0.99619300  0.29506100  0.14007900  1
  C  34  1  0.04538700  0.31777400  0.13716600  1
  C  35  1  0.08770400  0.28338200  0.13472000  1
  C  36  1  0.08132500  0.22881100  0.13513700  1
  C  37  1  0.02949200  0.01473800  0.18677600  1
  C  38  1  0.07718600  0.02795200  0.19289900  1
  C  39  1  0.08051800  0.03219100  0.20658700  1
  C  40  1  0.03661100  0.02244200  0.21464700  1
  C  41  1  0.98910900  0.00825000  0.20849200  1
  C  42  1  0.98554600  0.00466400  0.19476500  1
  C  43  1  0.01743800  0.82009400  0.13881700  1
  C  44  1  0.06100000  0.78671500  0.14040000  1
  C  45  1  0.96747900  0.79730800  0.13746300  1
  C  46  1  0.96119300  0.74269000  0.13778500  1
  C  47  1  0.00449600  0.70884600  0.13947200  1
  C  48  1  0.05459700  0.73194100  0.14073100  1
  C  75  1  0.05372400  0.37173700  0.13645500  1
  C  76  1  0.04061500  0.02999600  0.22809500  1
  C  77  1  0.99605200  0.65504100  0.14036200  1
  C  78  1  0.99492700  0.00611300  0.04891900  1
  C  83  1  0.14878100  0.02073200  0.61434700  1
  C  84  1  0.11086600  0.02065200  0.60474800  1
  C  85  1  0.06196300  0.02398500  0.61076500  1
  C  87  1  0.12408700  0.02371200  0.62650300  1
  C  88  1  0.15038100  0.02360800  0.63878100  1
  C  89  1  0.12478000  0.02481100  0.65111600  1
  C  91  1  0.06231300  0.02563600  0.66656100  1
  C  92  1  0.11084200  0.02614200  0.67280200  1
  C  93  1  0.14921000  0.02510400  0.66331700  1
  C  94  1  0.01266200  0.02624200  0.67281200  1
  C  95  1  0.96388500  0.02575200  0.66605600  1
  C  97  1  0.90171800  0.02609300  0.65030800  1
  C  98  1  0.87695500  0.02749100  0.66246400  1
  C  99  1  0.91483400  0.02672100  0.67206500  1
  C  100  1  0.87544300  0.02702800  0.63803200  1
  C  101  1  0.90115200  0.02634200  0.62570900  1
  C  103  1  0.96359600  0.02502900  0.61029800  1
  C  104  1  0.91512800  0.02542400  0.60402800  1
  C  105  1  0.87674800  0.02617300  0.61350200  1
  C  106  1  0.01318500  0.02386100  0.60404100  1
  C  107  1  0.01380300  0.01846500  0.59011800  1
  C  108  1  0.00627700  0.96880000  0.58441000  1
  C  109  1  0.00793400  0.96242400  0.57076100  1
  C  110  1  0.01703500  0.00537500  0.56233100  1
  C  111  1  0.02416500  0.05520000  0.56811000  1
  C  112  1  0.02256600  0.06167500  0.58179900  1
  C  113  1  0.81973800  0.03275300  0.63799400  1
  C  114  1  0.78593400  0.99018800  0.64046800  1
  C  115  1  0.73116400  0.99671700  0.64012800  1
  C  116  1  0.70840800  0.04590900  0.63723700  1
  C  117  1  0.74276400  0.08827900  0.63481600  1
  C  118  1  0.79733900  0.08194300  0.63522700  1
  C  119  1  0.01164600  0.02979300  0.68679100  1
  C  120  1  0.99852900  0.07747300  0.69293500  1
  C  121  1  0.99436100  0.08073800  0.70662400  1
  C  122  1  0.00405000  0.03676500  0.71466600  1
  C  123  1  0.01819900  0.98928900  0.70849100  1
  C  124  1  0.02169900  0.98579200  0.69476100  1
  C  125  1  0.20608500  0.01816800  0.63877100  1
  C  126  1  0.23953300  0.06163800  0.64041500  1
  C  127  1  0.22879000  0.96819800  0.63736000  1
  C  128  1  0.28340200  0.96181400  0.63768100  1
  C  129  1  0.31731100  0.00502300  0.63943100  1
  C  130  1  0.29429600  0.05513800  0.64074600  1
  C  157  1  0.65443900  0.05420500  0.63652300  1
  C  158  1  0.99658000  0.04071000  0.72811600  1
  C  159  1  0.37110800  0.99649000  0.64030900  1
  C  160  1  0.02087400  0.99678300  0.54890000  1
  C  165  1  0.01010200  0.87690000  0.91229600  1
  C  166  1  0.01001600  0.91455300  0.92195300  1
  C  167  1  0.00790300  0.96367400  0.91601000  1
  C  169  1  0.00833600  0.90195300  0.90017400  1
  C  170  1  0.00782100  0.87589200  0.88786700  1
  C  171  1  0.00658600  0.90175700  0.87556900  1
  C  173  1  0.00566800  0.96460800  0.86022600  1
  C  174  1  0.00482400  0.91623700  0.85391000  1
  C  175  1  0.00587900  0.87762300  0.86333300  1
  C  176  1  0.00499200  0.01442900  0.85406300  1
  C  177  1  0.00546100  0.06301700  0.86090500  1
  C  179  1  0.00522600  0.12480700  0.87675300  1
  C  180  1  0.00323800  0.14983600  0.86463200  1
  C  181  1  0.00388200  0.11219400  0.85497200  1
  C  182  1  0.00426900  0.15080700  0.88907000  1
  C  183  1  0.00524200  0.12484100  0.90136200  1
  C  185  1  0.00645300  0.06201200  0.91669400  1
  C  186  1  0.00413600  0.11029000  0.92302600  1
  C  187  1  0.00373800  0.14890200  0.91360700  1
  C  188  1  0.00698100  0.01220400  0.92285300  1
  C  189  1  0.00289800  0.01074300  0.93680900  1
  C  190  1  0.04612400  0.02126500  0.94500000  1
  C  191  1  0.04115900  0.01905300  0.95872500  1
  C  192  1  0.99290700  0.00604300  0.96470900  1
  C  193  1  0.94985400  0.99570800  0.95637800  1
  C  194  1  0.95463300  0.99816200  0.94270200  1
  C  195  1  0.99795900  0.20646000  0.88916800  1
  C  196  1  0.04023100  0.24064100  0.88671200  1
  C  197  1  0.03319700  0.29534500  0.88701700  1
  C  198  1  0.98376800  0.31769100  0.88985600  1
  C  199  1  0.94168000  0.28296900  0.89226200  1
  C  200  1  0.94851000  0.22843600  0.89187100  1
  C  201  1  0.00022500  0.01575600  0.84010900  1
  C  202  1  0.95160900  0.02773300  0.83430900  1
  C  203  1  0.94661900  0.03133700  0.82064800  1
  C  204  1  0.98975800  0.02253500  0.81224200  1
  C  205  1  0.03825400  0.00965700  0.81811100  1
  C  206  1  0.04346200  0.00650800  0.83182200  1
  C  207  1  0.01256800  0.82011700  0.88781800  1
  C  208  1  0.96881600  0.78712600  0.88604700  1
  C  209  1  0.06219000  0.79687800  0.88942700  1
  C  210  1  0.06799700  0.74220900  0.88915200  1
  C  211  1  0.02452300  0.70875600  0.88727300  1
  C  212  1  0.97473900  0.73228500  0.88576300  1
  C  239  1  0.97504400  0.37160900  0.89052500  1
  C  240  1  0.98324100  0.02860000  0.79876200  1
  C  241  1  0.03261700  0.65489600  0.88642500  1
  C  242  1  0.98609300  0.00265900  0.97824900  1
  C  247  1  0.87835700  0.02121400  0.41239600  1
  C  248  1  0.91609600  0.02251700  0.42202900  1
  C  249  1  0.96515100  0.02433400  0.41604400  1
  C  251  1  0.90329700  0.02200900  0.40025300  1
  C  252  1  0.87713100  0.02127900  0.38796100  1
  C  253  1  0.90286700  0.02189200  0.37564400  1
  C  255  1  0.96554500  0.02231800  0.36025800  1
  C  256  1  0.91710800  0.02268900  0.35397100  1
  C  257  1  0.87860000  0.02188800  0.36342300  1
  C  258  1  0.01530300  0.02284000  0.35406200  1
  C  259  1  0.06395400  0.02250700  0.36087700  1
  C  261  1  0.12590900  0.02328100  0.37668100  1
  C  262  1  0.15082100  0.02452000  0.36454000  1
  C  263  1  0.11307300  0.02360500  0.35490700  1
  C  264  1  0.15202400  0.02498300  0.38897900  1
  C  265  1  0.12617100  0.02524100  0.40128700  1
  C  267  1  0.06348800  0.02588700  0.41665800  1
  C  268  1  0.11183500  0.02872800  0.42294400  1
  C  269  1  0.15035600  0.02788200  0.41350500  1
  C  270  1  0.01373900  0.02610200  0.42284800  1
  C  271  1  0.01242700  0.03185100  0.43676800  1
  C  272  1  0.02354800  0.98975400  0.44527000  1
  C  273  1  0.02170800  0.99642000  0.45895300  1
  C  274  1  0.00848100  0.04530100  0.46458100  1
  C  275  1  0.99749000  0.08719100  0.45594400  1
  C  276  1  0.99958000  0.08071600  0.44230700  1
  C  277  1  0.20770700  0.03101600  0.38901200  1
  C  278  1  0.24164400  0.98836700  0.38676100  1
  C  279  1  0.29639000  0.99509100  0.38705400  1
  C  280  1  0.31900200  0.04458800  0.38967500  1
  C  281  1  0.28452100  0.08706600  0.39186000  1
  C  282  1  0.22995700  0.08053400  0.39148200  1
  C  283  1  0.01650400  0.02731700  0.34010200  1
  C  284  1  0.02844200  0.07584200  0.33424900  1
  C  285  1  0.03195800  0.08062500  0.32058300  1
  C  286  1  0.02307200  0.03736400  0.31222100  1
  C  287  1  0.01023500  0.98895700  0.31814200  1
  C  288  1  0.00716400  0.98396000  0.33186000  1
  C  289  1  0.82139100  0.01630800  0.38796700  1
  C  290  1  0.78823100  0.05983900  0.38606900  1
  C  291  1  0.79835500  0.96667800  0.38974100  1
  C  292  1  0.74370500  0.96064200  0.38949100  1
  C  293  1  0.71008400  0.00388600  0.38747400  1
  C  294  1  0.73342200  0.05368000  0.38580700  1
  C  321  1  0.37295300  0.05304800  0.39035100  1
  C  322  1  0.02906900  0.04369800  0.29873500  1
  C  323  1  0.65626000  0.99555600  0.38662400  1
  C  324  1  0.00544100  0.05375300  0.47806300  1
  C  329  1  0.01365100  0.00578500  0.24957400  1
  C  331  1  0.04192400  0.04809600  0.26928300  1
  C  332  1  0.01382300  0.01203600  0.27702400  1
  C  334  1  0.98519000  0.96927700  0.25721500  1
  C  336  1  0.95648500  0.92868100  0.25175100  1
  C  337  1  0.91132600  0.94005500  0.24361800  1
  C  344  1  0.02088800  0.01361100  0.74957800  1
  C  346  1  0.97868500  0.04175000  0.76931300  1
  C  347  1  0.01479400  0.01360800  0.77702900  1
  C  349  1  0.05745400  0.98511600  0.75719400  1
  C  351  1  0.09802200  0.95644900  0.75170500  1
  C  352  1  0.08660400  0.91131800  0.74356500  1
  C  359  1  0.02803100  0.01463600  0.02725700  1
  C  361  1  0.97848600  0.99790400  0.00778700  1
  C  362  1  0.02100400  0.01302500  0.99982700  1
  C  364  1  0.07109200  0.02969000  0.01938400  1
  C  366  1  0.11831100  0.04582700  0.02466300  1
  C  367  1  0.15233900  0.00739100  0.03077600  1
  C  374  1  0.01315400  0.02968200  0.52718800  1
  C  376  1  0.03042200  0.98051700  0.50763800  1
  C  377  1  0.01584300  0.02325400  0.49979400  1
  C  379  1  0.99844300  0.07299300  0.51936500  1
  C  381  1  0.98218200  0.12030800  0.52456800  1
  C  382  1  0.02075000  0.15437000  0.53061500  1
  C  389  1  0.02905200  0.56822000  0.13835300  1
  C  391  1  0.97999000  0.48985400  0.14257100  1
  C  392  1  0.02287500  0.45859700  0.13897200  1
  C  394  1  0.07249800  0.53704100  0.13471300  1
  C  396  1  0.11982900  0.55804200  0.13072300  1
  C  397  1  0.15380900  0.58183200  0.14044800  1
  C  404  1  0.45796400  0.02948100  0.63835800  1
  C  406  1  0.53631400  0.98040400  0.64258800  1
  C  407  1  0.56758700  0.02329900  0.63900300  1
  C  409  1  0.48916300  0.07293300  0.63473200  1
  C  411  1  0.46817400  0.12027100  0.63074300  1
  C  412  1  0.44440300  0.15426300  0.64046800  1
  C  419  1  0.99936600  0.56823900  0.88848200  1
  C  421  1  0.04853100  0.48983500  0.88437200  1
  C  422  1  0.00562900  0.45860100  0.88796700  1
  C  424  1  0.95590200  0.53707200  0.89212300  1
  C  426  1  0.90852100  0.55808900  0.89604900  1
  C  427  1  0.87462200  0.58276200  0.88646300  1
  C  434  1  0.56949400  0.02869300  0.38853200  1
  C  436  1  0.49122200  0.97918500  0.38448500  1
  C  437  1  0.45985500  0.02218300  0.38793800  1
  C  439  1  0.53817400  0.07225900  0.39200700  1
  C  441  1  0.55841300  0.12008100  0.39582900  1
  C  442  1  0.58307500  0.15372300  0.38623100  1
  C  449  1  0.33177300  0.18989400  0.14368400  1
  C  450  1  0.33134800  0.22777800  0.13407900  1
  C  451  1  0.33477600  0.27669900  0.14008200  1
  C  453  1  0.33504600  0.21463000  0.15582900  1
  C  454  1  0.33534600  0.18837400  0.16811200  1
  C  455  1  0.33676600  0.21402800  0.18043800  1
  C  457  1  0.33780100  0.27656200  0.19586500  1
  C  458  1  0.33851000  0.22805900  0.20211800  1
  C  459  1  0.33736400  0.18964800  0.19264500  1
  C  460  1  0.33841500  0.32624200  0.20210400  1
  C  461  1  0.33786500  0.37499400  0.19533700  1
  C  463  1  0.33808500  0.43710100  0.17957400  1
  C  464  1  0.33949700  0.46191600  0.19172500  1
  C  465  1  0.33885200  0.42406900  0.20133400  1
  C  466  1  0.33895900  0.46333300  0.16729200  1
  C  467  1  0.33792400  0.43758400  0.15497800  1
  C  469  1  0.33597800  0.37508000  0.13958900  1
  C  470  1  0.33641900  0.42351600  0.13330400  1
  C  471  1  0.33760600  0.46193700  0.14276400  1
  C  472  1  0.33450100  0.32546000  0.13335300  1
  C  473  1  0.32897500  0.32479200  0.11943900  1
  C  474  1  0.27932900  0.33255900  0.11373900  1
  C  475  1  0.27296000  0.33111300  0.10008800  1
  C  476  1  0.31592300  0.32201000  0.09165950  1
  C  477  1  0.36569800  0.31452800  0.09743150  1
  C  478  1  0.37214900  0.31588800  0.11111800  1
  C  479  1  0.34471300  0.51903100  0.16723800  1
  C  480  1  0.30219300  0.55287000  0.16972700  1
  C  481  1  0.30876500  0.60763300  0.16938300  1
  C  482  1  0.35795900  0.63034600  0.16647000  1
  C  483  1  0.40027600  0.59595400  0.16402400  1
  C  484  1  0.39389700  0.54138300  0.16444100  1
  C  485  1  0.34206400  0.32731000  0.21608000  1
  C  486  1  0.38975800  0.34052400  0.22220300  1
  C  487  1  0.39309000  0.34476300  0.23589100  1
  C  488  1  0.34918300  0.33501400  0.24395100  1
  C  489  1  0.30168100  0.32082200  0.23779600  1
  C  490  1  0.29811800  0.31723600  0.22406900  1
  C  491  1  0.33001000  0.13266600  0.16812100  1
  C  492  1  0.37357200  0.09928700  0.16970400  1
  C  493  1  0.28005100  0.10988000  0.16676700  1
  C  494  1  0.27376500  0.05526200  0.16708900  1
  C  495  1  0.31706800  0.02141800  0.16877600  1
  C  496  1  0.36716900  0.04451300  0.17003500  1
  C  523  1  0.36629600  0.68430900  0.16575900  1
  C  524  1  0.35318700  0.34256800  0.25739900  1
  C  525  1  0.30862400  0.96761300  0.16966600  1
  C  526  1  0.30749900  0.31868500  0.07822250  1
  C  531  1  0.46135300  0.33333333  0.64365100  1
  C  532  1  0.42343800  0.33322400  0.63405200  1
  C  533  1  0.37453500  0.33655700  0.64006900  1
  C  535  1  0.43665900  0.33628400  0.65580700  1
  C  536  1  0.46295300  0.33618000  0.66808500  1
  C  537  1  0.43735200  0.33738300  0.68042000  1
  C  539  1  0.37488500  0.33820800  0.69586500  1
  C  540  1  0.42341400  0.33871400  0.70210600  1
  C  541  1  0.46178200  0.33767600  0.69262100  1
  C  542  1  0.32523400  0.33881400  0.70211600  1
  C  543  1  0.27645700  0.33832400  0.69536000  1
  C  545  1  0.21429000  0.33866500  0.67961200  1
  C  546  1  0.18952700  0.34006300  0.69176800  1
  C  547  1  0.22740600  0.33929300  0.70136900  1
  C  548  1  0.18801500  0.33960000  0.66733600  1
  C  549  1  0.21372400  0.33891400  0.65501300  1
  C  551  1  0.27616800  0.33760100  0.63960200  1
  C  552  1  0.22770000  0.33799600  0.63333200  1
  C  553  1  0.18932000  0.33874500  0.64280600  1
  C  554  1  0.32575700  0.33643300  0.63334500  1
  C  555  1  0.32637500  0.33103700  0.61942200  1
  C  556  1  0.31884900  0.28137200  0.61371400  1
  C  557  1  0.32050600  0.27499600  0.60006500  1
  C  558  1  0.32960700  0.31794700  0.59163500  1
  C  559  1  0.33673700  0.36777200  0.59741400  1
  C  560  1  0.33513800  0.37424700  0.61110300  1
  C  561  1  0.13231000  0.34532500  0.66729800  1
  C  562  1  0.09850600  0.30276000  0.66977200  1
  C  563  1  0.04373600  0.30928900  0.66943200  1
  C  564  1  0.02098000  0.35848100  0.66654100  1
  C  565  1  0.05533600  0.40085100  0.66412000  1
  C  566  1  0.10991100  0.39451500  0.66453100  1
  C  567  1  0.32421800  0.34236500  0.71609500  1
  C  568  1  0.31110100  0.39004500  0.72223900  1
  C  569  1  0.30693300  0.39331000  0.73592800  1
  C  570  1  0.31662200  0.34933700  0.74397000  1
  C  571  1  0.33077100  0.30186100  0.73779500  1
  C  572  1  0.33427100  0.29836400  0.72406500  1
  C  573  1  0.51865700  0.33074000  0.66807500  1
  C  574  1  0.55210500  0.37421000  0.66971900  1
  C  575  1  0.54136200  0.28077000  0.66666667  1
  C  576  1  0.59597400  0.27438600  0.66698500  1
  C  577  1  0.62988300  0.31759500  0.66873500  1
  C  578  1  0.60686800  0.36771000  0.67005000  1
  C  605  1  0.96701100  0.36677700  0.66582700  1
  C  606  1  0.30915200  0.35328200  0.75742000  1
  C  607  1  0.68368000  0.30906200  0.66961300  1
  C  608  1  0.33344600  0.30935500  0.57820400  1
  C  613  1  0.32267400  0.18947200  0.94160000  1
  C  614  1  0.32258800  0.22712500  0.95125700  1
  C  615  1  0.32047500  0.27624600  0.94531400  1
  C  617  1  0.32090800  0.21452500  0.92947800  1
  C  618  1  0.32039300  0.18846400  0.91717100  1
  C  619  1  0.31915800  0.21432900  0.90487300  1
  C  621  1  0.31824000  0.27718000  0.88953000  1
  C  622  1  0.31739600  0.22880900  0.88321400  1
  C  623  1  0.31845100  0.19019500  0.89263700  1
  C  624  1  0.31756400  0.32700100  0.88336700  1
  C  625  1  0.31803300  0.37558900  0.89020900  1
  C  627  1  0.31779800  0.43737900  0.90605700  1
  C  628  1  0.31581000  0.46240800  0.89393600  1
  C  629  1  0.31645400  0.42476600  0.88427600  1
  C  630  1  0.31684100  0.46337900  0.91837400  1
  C  631  1  0.31781400  0.43741300  0.93066600  1
  C  633  1  0.31902500  0.37458400  0.94599800  1
  C  634  1  0.31670800  0.42286200  0.95233000  1
  C  635  1  0.31631000  0.46147400  0.94291100  1
  C  636  1  0.31955300  0.32477600  0.95215700  1
  C  637  1  0.31547000  0.32331500  0.96611300  1
  C  638  1  0.35869600  0.33383700  0.97430400  1
  C  639  1  0.35373100  0.33162500  0.98802900  1
  C  640  1  0.30547900  0.31861500  0.99401300  1
  C  641  1  0.26242600  0.30828000  0.98568200  1
  C  642  1  0.26720500  0.31073400  0.97200600  1
  C  643  1  0.31053100  0.51903200  0.91847200  1
  C  644  1  0.35280300  0.55321300  0.91601600  1
  C  645  1  0.34576900  0.60791700  0.91632100  1
  C  646  1  0.29634000  0.63026300  0.91916000  1
  C  647  1  0.25425200  0.59554100  0.92156600  1
  C  648  1  0.26108200  0.54100800  0.92117500  1
  C  649  1  0.31279700  0.32832800  0.86941300  1
  C  650  1  0.26418100  0.34030500  0.86361300  1
  C  651  1  0.25919100  0.34390900  0.84995200  1
  C  652  1  0.30233000  0.33510700  0.84154600  1
  C  653  1  0.35082600  0.32222900  0.84741500  1
  C  654  1  0.35603400  0.31908000  0.86112600  1
  C  655  1  0.32514000  0.13268900  0.91712200  1
  C  656  1  0.28138800  0.09969800  0.91535100  1
  C  657  1  0.37476200  0.10945000  0.91873100  1
  C  658  1  0.38056900  0.05478100  0.91845600  1
  C  659  1  0.33709500  0.02132800  0.91657700  1
  C  660  1  0.28731100  0.04485700  0.91506700  1
  C  687  1  0.28761600  0.68418100  0.91982900  1
  C  688  1  0.29581300  0.34117200  0.82806600  1
  C  689  1  0.34518900  0.96746800  0.91572900  1
  C  690  1  0.29866500  0.31523100  0.00755251  1
  C  695  1  0.19092900  0.33378600  0.44170000  1
  C  696  1  0.22866800  0.33508900  0.45133300  1
  C  697  1  0.27772300  0.33690600  0.44534800  1
  C  699  1  0.21586900  0.33458100  0.42955700  1
  C  700  1  0.18970300  0.33385100  0.41726500  1
  C  701  1  0.21543900  0.33446400  0.40494800  1
  C  703  1  0.27811700  0.33489000  0.38956200  1
  C  704  1  0.22968000  0.33526100  0.38327500  1
  C  705  1  0.19117200  0.33446000  0.39272700  1
  C  706  1  0.32787500  0.33541200  0.38336600  1
  C  707  1  0.37652600  0.33507900  0.39018100  1
  C  709  1  0.43848100  0.33585300  0.40598500  1
  C  710  1  0.46339300  0.33709200  0.39384400  1
  C  711  1  0.42564500  0.33617700  0.38421100  1
  C  712  1  0.46459600  0.33755500  0.41828300  1
  C  713  1  0.43874300  0.33781300  0.43059100  1
  C  715  1  0.37606000  0.33845900  0.44596200  1
  C  716  1  0.42440700  0.34130000  0.45224800  1
  C  717  1  0.46292800  0.34045400  0.44280900  1
  C  718  1  0.32631100  0.33867400  0.45215200  1
  C  719  1  0.32499900  0.34442300  0.46607200  1
  C  720  1  0.33612000  0.30232600  0.47457400  1
  C  721  1  0.33428000  0.30899200  0.48825700  1
  C  722  1  0.32105300  0.35787300  0.49388500  1
  C  723  1  0.31006200  0.39976300  0.48524800  1
  C  724  1  0.31215200  0.39328800  0.47161100  1
  C  725  1  0.52027900  0.34358800  0.41831600  1
  C  726  1  0.55421600  0.30093900  0.41606500  1
  C  727  1  0.60896200  0.30766300  0.41635800  1
  C  728  1  0.63157400  0.35716000  0.41897900  1
  C  729  1  0.59709300  0.39963800  0.42116400  1
  C  730  1  0.54252900  0.39310600  0.42078600  1
  C  731  1  0.32907600  0.33988900  0.36940600  1
  C  732  1  0.34101400  0.38841400  0.36355300  1
  C  733  1  0.34453000  0.39319700  0.34988700  1
  C  734  1  0.33564400  0.34993600  0.34152500  1
  C  735  1  0.32280700  0.30152900  0.34744600  1
  C  736  1  0.31973600  0.29653200  0.36116400  1
  C  737  1  0.13396300  0.32888000  0.41727100  1
  C  738  1  0.10080300  0.37241100  0.41537300  1
  C  739  1  0.11092700  0.27925000  0.41904500  1
  C  740  1  0.05627700  0.27321400  0.41879500  1
  C  741  1  0.02265600  0.31645800  0.41677800  1
  C  742  1  0.04599400  0.36625200  0.41511100  1
  C  769  1  0.68552500  0.36562000  0.41965500  1
  C  770  1  0.34164100  0.35627000  0.32803900  1
  C  771  1  0.96883200  0.30812800  0.41592800  1
  C  772  1  0.31801300  0.36632500  0.50736700  1
  C  777  1  0.32622300  0.31835700  0.27887800  1
  C  779  1  0.35449600  0.36066800  0.29858700  1
  C  780  1  0.32639500  0.32460800  0.30632800  1
  C  782  1  0.29776200  0.28184900  0.28651900  1
  C  784  1  0.26905700  0.24125300  0.28105500  1
  C  785  1  0.22389800  0.25262700  0.27292200  1
  C  792  1  0.33346000  0.32618300  0.77888200  1
  C  794  1  0.29125700  0.35432200  0.79861700  1
  C  795  1  0.32736600  0.32618000  0.80633300  1
  C  797  1  0.37002600  0.29768800  0.78649800  1
  C  799  1  0.41059400  0.26902100  0.78100900  1
  C  800  1  0.39917600  0.22389000  0.77286900  1
  C  807  1  0.34060300  0.32720800  0.05656050  1
  C  809  1  0.29105800  0.31047600  0.03709050  1
  C  810  1  0.33357600  0.32559700  0.02913050  1
  C  812  1  0.38366400  0.34226200  0.04868750  1
  C  814  1  0.43088300  0.35839900  0.05396650  1
  C  815  1  0.46491100  0.31996300  0.06007950  1
  C  822  1  0.32572600  0.34225400  0.55649200  1
  C  824  1  0.34299400  0.29308900  0.53694200  1
  C  825  1  0.32841500  0.33582600  0.52909800  1
  C  827  1  0.31101500  0.38556500  0.54866900  1
  C  829  1  0.29475400  0.43288000  0.55387200  1
  C  830  1  0.33333333  0.46694200  0.55991900  1
  C  837  1  0.34162400  0.88079200  0.16765700  1
  C  839  1  0.29256200  0.80242600  0.17187500  1
  C  840  1  0.33544700  0.77116900  0.16827600  1
  C  842  1  0.38507000  0.84961300  0.16401700  1
  C  844  1  0.43240100  0.87061400  0.16002700  1
  C  845  1  0.46638100  0.89440400  0.16975200  1
  C  852  1  0.77053600  0.34205300  0.66766200  1
  C  854  1  0.84888600  0.29297600  0.67189200  1
  C  855  1  0.88015900  0.33587100  0.66830700  1
  C  857  1  0.80173500  0.38550500  0.66403600  1
  C  859  1  0.78074600  0.43284300  0.66004700  1
  C  860  1  0.75697500  0.46683500  0.66977200  1
  C  867  1  0.31193800  0.88081100  0.91778600  1
  C  869  1  0.36110300  0.80240700  0.91367600  1
  C  870  1  0.31820100  0.77117300  0.91727100  1
  C  872  1  0.26847400  0.84964400  0.92142700  1
  C  874  1  0.22109300  0.87066100  0.92535300  1
  C  875  1  0.18719400  0.89533400  0.91576700  1
  C  882  1  0.88206600  0.34126500  0.41783600  1
  C  884  1  0.80379400  0.29175700  0.41378900  1
  C  885  1  0.77242700  0.33475500  0.41724200  1
  C  887  1  0.85074600  0.38483100  0.42131100  1
  C  889  1  0.87098500  0.43265300  0.42513300  1
  C  890  1  0.89564700  0.46629500  0.41553500  1
  C  897  1  0.64434500  0.50246600  0.17298700  1
  C  898  1  0.64392000  0.54035000  0.16338200  1
  C  899  1  0.64734800  0.58927100  0.16938500  1
  C  901  1  0.64761800  0.52720200  0.18513200  1
  C  902  1  0.64791800  0.50094600  0.19741500  1
  C  903  1  0.64933800  0.52660000  0.20974100  1
  C  905  1  0.65037300  0.58913400  0.22516800  1
  C  906  1  0.65108200  0.54063100  0.23142100  1
  C  907  1  0.64993600  0.50222000  0.22194800  1
  C  908  1  0.65098700  0.63881400  0.23140700  1
  C  909  1  0.65043700  0.68756600  0.22464000  1
  C  911  1  0.65065700  0.74967300  0.20887700  1
  C  912  1  0.65206900  0.77448800  0.22102800  1
  C  913  1  0.65142400  0.73664100  0.23063700  1
  C  914  1  0.65153100  0.77590500  0.19659500  1
  C  915  1  0.65049600  0.75015600  0.18428100  1
  C  917  1  0.64855000  0.68765200  0.16889200  1
  C  918  1  0.64899100  0.73608800  0.16260700  1
  C  919  1  0.65017800  0.77450900  0.17206700  1
  C  920  1  0.64707300  0.63803200  0.16265600  1
  C  921  1  0.64154700  0.63736400  0.14874200  1
  C  922  1  0.59190100  0.64513100  0.14304200  1
  C  923  1  0.58553200  0.64368500  0.12939100  1
  C  924  1  0.62849500  0.63458200  0.12096300  1
  C  925  1  0.67827000  0.62710000  0.12673500  1
  C  926  1  0.68472100  0.62846000  0.14042100  1
  C  927  1  0.65728500  0.83160300  0.19654100  1
  C  928  1  0.61476500  0.86544200  0.19903000  1
  C  929  1  0.62133700  0.92020500  0.19868600  1
  C  930  1  0.67053100  0.94291800  0.19577300  1
  C  931  1  0.71284800  0.90852600  0.19332700  1
  C  932  1  0.70646900  0.85395500  0.19374400  1
  C  933  1  0.65463600  0.63988200  0.24538300  1
  C  934  1  0.70233000  0.65309600  0.25150600  1
  C  935  1  0.70566200  0.65733500  0.26519400  1
  C  936  1  0.66175500  0.64758600  0.27325400  1
  C  937  1  0.61425300  0.63339400  0.26709900  1
  C  938  1  0.61069000  0.62980800  0.25337200  1
  C  939  1  0.64258200  0.44523800  0.19742400  1
  C  940  1  0.68614400  0.41185900  0.19900700  1
  C  941  1  0.59262300  0.42245200  0.19607000  1
  C  942  1  0.58633700  0.36783400  0.19639200  1
  C  943  1  0.62964000  0.33399000  0.19807900  1
  C  944  1  0.67974100  0.35708500  0.19933800  1
  C  971  1  0.67886800  0.99688100  0.19506200  1
  C  972  1  0.66575900  0.65514000  0.28670200  1
  C  973  1  0.62119600  0.28018500  0.19896900  1
  C  974  1  0.62007100  0.63125700  0.10752600  1
  C  979  1  0.77392500  0.64587600  0.67295400  1
  C  980  1  0.73601000  0.64579600  0.66335500  1
  C  981  1  0.68710700  0.64912900  0.66937200  1
  C  983  1  0.74923100  0.64885600  0.68511000  1
  C  984  1  0.77552500  0.64875200  0.69738800  1
  C  985  1  0.74992400  0.64995500  0.70972300  1
  C  987  1  0.68745700  0.65078000  0.72516800  1
  C  988  1  0.73598600  0.65128600  0.73140900  1
  C  989  1  0.77435400  0.65024800  0.72192400  1
  C  990  1  0.63780600  0.65138600  0.73141900  1
  C  991  1  0.58902900  0.65089600  0.72466300  1
  C  993  1  0.52686200  0.65123700  0.70891500  1
  C  994  1  0.50209900  0.65263500  0.72107100  1
  C  995  1  0.53997800  0.65186500  0.73067200  1
  C  996  1  0.50058700  0.65217200  0.69663900  1
  C  997  1  0.52629600  0.65148600  0.68431600  1
  C  999  1  0.58874000  0.65017300  0.66890500  1
  C  1000  1  0.54027200  0.65056800  0.66263500  1
  C  1001  1  0.50189200  0.65131700  0.67210900  1
  C  1002  1  0.63832900  0.64900500  0.66264800  1
  C  1003  1  0.63894700  0.64360900  0.64872500  1
  C  1004  1  0.63142100  0.59394400  0.64301700  1
  C  1005  1  0.63307800  0.58756800  0.62936800  1
  C  1006  1  0.64217900  0.63051900  0.62093800  1
  C  1007  1  0.64930900  0.68034400  0.62671700  1
  C  1008  1  0.64771000  0.68681900  0.64040600  1
  C  1009  1  0.44488200  0.65789700  0.69660100  1
  C  1010  1  0.41107800  0.61533200  0.69907500  1
  C  1011  1  0.35630800  0.62186100  0.69873500  1
  C  1012  1  0.33355200  0.67105300  0.69584400  1
  C  1013  1  0.36790800  0.71342300  0.69342300  1
  C  1014  1  0.42248300  0.70708700  0.69383400  1
  C  1015  1  0.63679000  0.65493700  0.74539800  1
  C  1016  1  0.62367300  0.70261700  0.75154200  1
  C  1017  1  0.61950500  0.70588200  0.76523100  1
  C  1018  1  0.62919400  0.66190900  0.77327300  1
  C  1019  1  0.64334300  0.61443300  0.76709800  1
  C  1020  1  0.64684300  0.61093600  0.75336800  1
  C  1021  1  0.83122900  0.64331200  0.69737800  1
  C  1022  1  0.86467700  0.68678200  0.69902200  1
  C  1023  1  0.85393400  0.59334200  0.69596700  1
  C  1024  1  0.90854600  0.58695800  0.69628800  1
  C  1025  1  0.94245500  0.63016700  0.69803800  1
  C  1026  1  0.91944000  0.68028200  0.69935300  1
  C  1053  1  0.27958300  0.67934900  0.69513000  1
  C  1054  1  0.62172400  0.66585400  0.78672300  1
  C  1055  1  0.99625200  0.62163400  0.69891600  1
  C  1056  1  0.64601800  0.62192700  0.60750700  1
  C  1061  1  0.63524600  0.50204400  0.97090300  1
  C  1062  1  0.63516000  0.53969700  0.98056000  1
  C  1063  1  0.63304700  0.58881800  0.97461700  1
  C  1065  1  0.63348000  0.52709700  0.95878100  1
  C  1066  1  0.63296500  0.50103600  0.94647400  1
  C  1067  1  0.63173000  0.52690100  0.93417600  1
  C  1069  1  0.63081200  0.58975200  0.91883300  1
  C  1070  1  0.62996800  0.54138100  0.91251700  1
  C  1071  1  0.63102300  0.50276700  0.92194000  1
  C  1072  1  0.63013600  0.63957300  0.91267000  1
  C  1073  1  0.63060500  0.68816100  0.91951200  1
  C  1075  1  0.63037000  0.74995100  0.93536000  1
  C  1076  1  0.62838200  0.77498000  0.92323900  1
  C  1077  1  0.62902600  0.73733800  0.91357900  1
  C  1078  1  0.62941300  0.77595100  0.94767700  1
  C  1079  1  0.63038600  0.74998500  0.95996900  1
  C  1081  1  0.63159700  0.68715600  0.97530100  1
  C  1082  1  0.62928000  0.73543400  0.98163300  1
  C  1083  1  0.62888200  0.77404600  0.97221400  1
  C  1084  1  0.63212500  0.63734800  0.98146000  1
  C  1085  1  0.62804200  0.63588700  0.99541600  1
  C  1086  1  0.67126800  0.64640900  0.00360703  1
  C  1087  1  0.66630300  0.64419700  0.01733200  1
  C  1088  1  0.61805100  0.63118700  0.02331600  1
  C  1089  1  0.57499800  0.62085200  0.01498500  1
  C  1090  1  0.57977700  0.62330600  0.00130903  1
  C  1091  1  0.62310300  0.83160400  0.94777500  1
  C  1092  1  0.66537500  0.86578500  0.94531900  1
  C  1093  1  0.65834100  0.92048900  0.94562400  1
  C  1094  1  0.60891200  0.94283500  0.94846300  1
  C  1095  1  0.56682400  0.90811300  0.95086900  1
  C  1096  1  0.57365400  0.85358000  0.95047800  1
  C  1097  1  0.62536900  0.64090000  0.89871600  1
  C  1098  1  0.57675300  0.65287700  0.89291600  1
  C  1099  1  0.57176300  0.65648100  0.87925500  1
  C  1100  1  0.61490200  0.64767900  0.87084900  1
  C  1101  1  0.66339800  0.63480100  0.87671800  1
  C  1102  1  0.66860600  0.63165200  0.89042900  1
  C  1103  1  0.63771200  0.44526100  0.94642500  1
  C  1104  1  0.59396000  0.41227000  0.94465400  1
  C  1105  1  0.68733400  0.42202200  0.94803400  1
  C  1106  1  0.69314100  0.36735300  0.94775900  1
  C  1107  1  0.64966700  0.33390000  0.94588000  1
  C  1108  1  0.59988300  0.35742900  0.94437000  1
  C  1135  1  0.60018800  0.99675300  0.94913200  1
  C  1136  1  0.60838500  0.65374400  0.85736900  1
  C  1137  1  0.65776100  0.28004000  0.94503200  1
  C  1138  1  0.61123700  0.62780300  0.03685600  1
  C  1143  1  0.50350100  0.64635800  0.47100300  1
  C  1144  1  0.54124000  0.64766100  0.48063600  1
  C  1145  1  0.59029500  0.64947800  0.47465100  1
  C  1147  1  0.52844100  0.64715300  0.45886000  1
  C  1148  1  0.50227500  0.64642300  0.44656800  1
  C  1149  1  0.52801100  0.64703600  0.43425100  1
  C  1151  1  0.59068900  0.64746200  0.41886500  1
  C  1152  1  0.54225200  0.64783300  0.41257800  1
  C  1153  1  0.50374400  0.64703200  0.42203000  1
  C  1154  1  0.64044700  0.64798400  0.41266900  1
  C  1155  1  0.68909800  0.64765100  0.41948400  1
  C  1157  1  0.75105300  0.64842500  0.43528800  1
  C  1158  1  0.77596500  0.64966400  0.42314700  1
  C  1159  1  0.73821700  0.64874900  0.41351400  1
  C  1160  1  0.77716800  0.65012700  0.44758600  1
  C  1161  1  0.75131500  0.65038500  0.45989400  1
  C  1163  1  0.68863200  0.65103100  0.47526500  1
  C  1164  1  0.73697900  0.65387200  0.48155100  1
  C  1165  1  0.77550000  0.65302600  0.47211200  1
  C  1166  1  0.63888300  0.65124600  0.48145500  1
  C  1167  1  0.63757100  0.65699500  0.49537500  1
  C  1168  1  0.64869200  0.61489800  0.50387700  1
  C  1169  1  0.64685200  0.62156400  0.51756000  1
  C  1170  1  0.63362500  0.67044500  0.52318800  1
  C  1171  1  0.62263400  0.71233500  0.51455100  1
  C  1172  1  0.62472400  0.70586000  0.50091400  1
  C  1173  1  0.83285100  0.65616000  0.44761900  1
  C  1174  1  0.86678800  0.61351100  0.44536800  1
  C  1175  1  0.92153400  0.62023500  0.44566100  1
  C  1176  1  0.94414600  0.66973200  0.44828200  1
  C  1177  1  0.90966500  0.71221000  0.45046700  1
  C  1178  1  0.85510100  0.70567800  0.45008900  1
  C  1179  1  0.64164800  0.65246100  0.39870900  1
  C  1180  1  0.65358600  0.70098600  0.39285600  1
  C  1181  1  0.65710200  0.70576900  0.37919000  1
  C  1182  1  0.64821600  0.66250800  0.37082800  1
  C  1183  1  0.63537900  0.61410100  0.37674900  1
  C  1184  1  0.63230800  0.60910400  0.39046700  1
  C  1185  1  0.44653500  0.64145200  0.44657400  1
  C  1186  1  0.41337500  0.68498300  0.44467600  1
  C  1187  1  0.42349900  0.59182200  0.44834800  1
  C  1188  1  0.36884900  0.58578600  0.44809800  1
  C  1189  1  0.33522800  0.62903000  0.44608100  1
  C  1190  1  0.35856600  0.67882400  0.44441400  1
  C  1217  1  0.99809700  0.67819200  0.44895800  1
  C  1218  1  0.65421300  0.66884200  0.35734200  1
  C  1219  1  0.28140400  0.62070000  0.44523100  1
  C  1220  1  0.63058500  0.67889700  0.53667000  1
  C  1225  1  0.63879500  0.63092900  0.30818100  1
  C  1227  1  0.66706800  0.67324000  0.32789000  1
  C  1228  1  0.63896700  0.63718000  0.33563100  1
  C  1230  1  0.61033400  0.59442100  0.31582200  1
  C  1232  1  0.58162900  0.55382500  0.31035800  1
  C  1233  1  0.53647000  0.56519900  0.30222500  1
  C  1240  1  0.64603200  0.63875500  0.80818500  1
  C  1242  1  0.60382900  0.66689400  0.82792000  1
  C  1243  1  0.63993800  0.63875200  0.83563600  1
  C  1245  1  0.68259800  0.61026000  0.81580100  1
  C  1247  1  0.72316600  0.58159300  0.81031200  1
  C  1248  1  0.71174800  0.53646200  0.80217200  1
  C  1255  1  0.65317500  0.63978000  0.08586400  1
  C  1257  1  0.60363000  0.62304800  0.06639400  1
  C  1258  1  0.64614800  0.63816900  0.05843400  1
  C  1260  1  0.69623600  0.65483400  0.07799100  1
  C  1262  1  0.74345500  0.67097100  0.08327000  1
  C  1263  1  0.77748300  0.63253500  0.08938300  1
  C  1270  1  0.63829800  0.65482600  0.58579500  1
  C  1272  1  0.65556600  0.60566100  0.56624500  1
  C  1273  1  0.64098700  0.64839800  0.55840100  1
  C  1275  1  0.62358700  0.69813700  0.57797200  1
  C  1277  1  0.60732600  0.74545200  0.58317500  1
  C  1278  1  0.64589400  0.77951400  0.58922200  1
  C  1285  1  0.65419600  0.19336400  0.19696000  1
  C  1287  1  0.60513400  0.11499800  0.20117800  1
  C  1288  1  0.64801900  0.08374110  0.19757900  1
  C  1290  1  0.69764200  0.16218500  0.19332000  1
  C  1292  1  0.74497300  0.18318600  0.18933000  1
  C  1293  1  0.77895300  0.20697600  0.19905500  1
  C  1300  1  0.08310810  0.65462500  0.69696500  1
  C  1302  1  0.16145800  0.60554800  0.70119500  1
  C  1303  1  0.19273100  0.64844300  0.69761000  1
  C  1305  1  0.11430700  0.69807700  0.69333900  1
  C  1307  1  0.09331810  0.74541500  0.68935000  1
  C  1308  1  0.06954710  0.77940700  0.69907500  1
  C  1315  1  0.62451000  0.19338300  0.94708900  1
  C  1317  1  0.67367500  0.11497900  0.94297900  1
  C  1318  1  0.63077300  0.08374510  0.94657400  1
  C  1320  1  0.58104600  0.16221600  0.95073000  1
  C  1322  1  0.53366500  0.18323300  0.95465600  1
  C  1323  1  0.49976600  0.20790600  0.94507000  1
  C  1330  1  0.19463800  0.65383700  0.44713900  1
  C  1332  1  0.11636600  0.60432900  0.44309200  1
  C  1333  1  0.08499910  0.64732700  0.44654500  1
  C  1335  1  0.16331800  0.69740300  0.45061400  1
  C  1337  1  0.18355700  0.74522500  0.45443600  1
  C  1338  1  0.20821900  0.77886700  0.44483800  1
  N  4  1  0.02495400  0.95391800  0.12378200  1
  N  8  1  0.02437800  0.95342900  0.15360200  1
  N  14  1  0.02395700  0.07260100  0.15301200  1
  N  20  1  0.02427600  0.07305500  0.12323600  1
  N  86  1  0.07222300  0.02640800  0.62377100  1
  N  90  1  0.07281900  0.02502200  0.65359800  1
  N  96  1  0.95365600  0.02447500  0.65303700  1
  N  102  1  0.95310500  0.02555900  0.62325400  1
  N  168  1  0.00698800  0.95381200  0.90297500  1
  N  172  1  0.00652300  0.95377700  0.87316900  1
  N  178  1  0.00709800  0.07294700  0.87393800  1
  N  184  1  0.00724200  0.07286600  0.90375300  1
  N  250  1  0.95516800  0.02394800  0.40301300  1
  N  254  1  0.95485900  0.02203900  0.37321000  1
  N  260  1  0.07401300  0.02146500  0.37390700  1
  N  266  1  0.07421200  0.02369600  0.40372000  1
  N  330  1  0.04068300  0.04351800  0.25608600  1
  N  333  1  0.98699600  0.97436000  0.27049600  1
  N  342  1  0.01417000  0.00350700  0.23651300  1
  N  343  1  0.01160700  0.01150900  0.29008100  1
  N  345  1  0.98318600  0.04059300  0.75611500  1
  N  348  1  0.05244600  0.98683500  0.77047800  1
  N  357  1  0.02309000  0.01419800  0.73651700  1
  N  358  1  0.01541900  0.01131800  0.79008400  1
  N  360  1  0.98369000  0.99940500  0.02096300  1
  N  363  1  0.06525900  0.02814600  0.00612700  1
  N  372  1  0.03043100  0.01565000  0.04031600  1
  N  373  1  0.02145000  0.01398300  0.98676700  1
  N  375  1  0.02846900  0.98537400  0.52084300  1
  N  378  1  0.00056900  0.06748300  0.50612800  1
  N  387  1  0.01165000  0.03213200  0.54024300  1
  N  388  1  0.01724900  0.01941900  0.48679100  1
  N  390  1  0.98473300  0.54269500  0.14211400  1
  N  393  1  0.06711600  0.48406800  0.13521600  1
  N  402  1  0.03141800  0.62046200  0.13801500  1
  N  403  1  0.01915000  0.40656200  0.13929900  1
  N  405  1  0.48347000  0.98515100  0.64212000  1
  N  408  1  0.54212800  0.06754800  0.63524800  1
  N  417  1  0.40572600  0.03187300  0.63801500  1
  N  418  1  0.61962600  0.01958500  0.63934100  1
  N  420  1  0.04374100  0.54267100  0.88477900  1
  N  423  1  0.96132200  0.48408700  0.89166800  1
  N  432  1  0.99707600  0.62050500  0.88878400  1
  N  433  1  0.00947700  0.40658100  0.88769100  1
  N  435  1  0.54405000  0.98410400  0.38493000  1
  N  438  1  0.48523600  0.06668400  0.39152900  1
  N  447  1  0.62173600  0.03107400  0.38888100  1
  N  448  1  0.40782400  0.01836000  0.38762900  1
  N  452  1  0.33752600  0.26649000  0.15308600  1
  N  456  1  0.33695000  0.26600100  0.18290600  1
  N  462  1  0.33652900  0.38517300  0.18231600  1
  N  468  1  0.33684800  0.38562700  0.15254000  1
  N  534  1  0.38479500  0.33898000  0.65307500  1
  N  538  1  0.38539100  0.33759400  0.68290200  1
  N  544  1  0.26622800  0.33704700  0.68234100  1
  N  550  1  0.26567700  0.33813100  0.65255800  1
  N  616  1  0.31956000  0.26638400  0.93227900  1
  N  620  1  0.31909500  0.26634900  0.90247300  1
  N  626  1  0.31967000  0.38551900  0.90324200  1
  N  632  1  0.31981400  0.38543800  0.93305700  1
  N  698  1  0.26774000  0.33652000  0.43231700  1
  N  702  1  0.26743100  0.33461100  0.40251400  1
  N  708  1  0.38658500  0.33403700  0.40321100  1
  N  714  1  0.38678400  0.33626800  0.43302400  1
  N  778  1  0.35325500  0.35609000  0.28539000  1
  N  781  1  0.29956800  0.28693200  0.29980000  1
  N  790  1  0.32674200  0.31607900  0.26581700  1
  N  791  1  0.32417900  0.32408100  0.31938500  1
  N  793  1  0.29575800  0.35316500  0.78541900  1
  N  796  1  0.36501800  0.29940700  0.79978200  1
  N  805  1  0.33566200  0.32677000  0.76582100  1
  N  806  1  0.32799100  0.32389000  0.81938800  1
  N  808  1  0.29626200  0.31197700  0.05026650  1
  N  811  1  0.37783100  0.34071800  0.03543050  1
  N  820  1  0.34300300  0.32822200  0.06961950  1
  N  821  1  0.33402200  0.32655500  0.01607050  1
  N  823  1  0.34104100  0.29794600  0.55014700  1
  N  826  1  0.31314100  0.38005500  0.53543200  1
  N  835  1  0.32422200  0.34470400  0.56954700  1
  N  836  1  0.32982100  0.33199100  0.51609500  1
  N  838  1  0.29730500  0.85526700  0.17141800  1
  N  841  1  0.37968800  0.79664000  0.16452000  1
  N  850  1  0.34399000  0.93303400  0.16731900  1
  N  851  1  0.33172200  0.71913400  0.16860300  1
  N  853  1  0.79604200  0.29772300  0.67142400  1
  N  856  1  0.85470000  0.38012000  0.66455200  1
  N  865  1  0.71829800  0.34444500  0.66731900  1
  N  866  1  0.93219800  0.33215700  0.66864500  1
  N  868  1  0.35631300  0.85524300  0.91408300  1
  N  871  1  0.27389400  0.79665900  0.92097200  1
  N  880  1  0.30964800  0.93307700  0.91808800  1
  N  881  1  0.32204900  0.71915300  0.91699500  1
  N  883  1  0.85662200  0.29667600  0.41423400  1
  N  886  1  0.79780800  0.37925600  0.42083300  1
  N  895  1  0.93430800  0.34364600  0.41818500  1
  N  896  1  0.72039600  0.33093200  0.41693300  1
  N  900  1  0.65009800  0.57906200  0.18238900  1
  N  904  1  0.64952200  0.57857300  0.21220900  1
  N  910  1  0.64910100  0.69774500  0.21161900  1
  N  916  1  0.64942000  0.69819900  0.18184300  1
  N  982  1  0.69736700  0.65155200  0.68237800  1
  N  986  1  0.69796300  0.65016600  0.71220500  1
  N  992  1  0.57880000  0.64961900  0.71164400  1
  N  998  1  0.57824900  0.65070300  0.68186100  1
  N  1064  1  0.63213200  0.57895600  0.96158200  1
  N  1068  1  0.63166700  0.57892100  0.93177600  1
  N  1074  1  0.63224200  0.69809100  0.93254500  1
  N  1080  1  0.63238600  0.69801000  0.96236000  1
  N  1146  1  0.58031200  0.64909200  0.46162000  1
  N  1150  1  0.58000300  0.64718300  0.43181700  1
  N  1156  1  0.69915700  0.64660900  0.43251400  1
  N  1162  1  0.69935600  0.64884000  0.46232700  1
  N  1226  1  0.66582700  0.66866200  0.31469300  1
  N  1229  1  0.61214000  0.59950400  0.32910300  1
  N  1238  1  0.63931400  0.62865100  0.29512000  1
  N  1239  1  0.63675100  0.63665300  0.34868800  1
  N  1241  1  0.60833000  0.66573700  0.81472200  1
  N  1244  1  0.67759000  0.61197900  0.82908500  1
  N  1253  1  0.64823400  0.63934200  0.79512400  1
  N  1254  1  0.64056300  0.63646200  0.84869100  1
  N  1256  1  0.60883400  0.62454900  0.07957000  1
  N  1259  1  0.69040300  0.65329000  0.06473400  1
  N  1268  1  0.65557500  0.64079400  0.09892300  1
  N  1269  1  0.64659400  0.63912700  0.04537400  1
  N  1271  1  0.65361300  0.61051800  0.57945000  1
  N  1274  1  0.62571300  0.69262700  0.56473500  1
  N  1283  1  0.63679400  0.65727600  0.59885000  1
  N  1284  1  0.64239300  0.64456300  0.54539800  1
  N  1286  1  0.60987700  0.16783900  0.20072100  1
  N  1289  1  0.69226000  0.10921200  0.19382300  1
  N  1298  1  0.65656200  0.24560600  0.19662200  1
  N  1299  1  0.64429400  0.03170610  0.19790600  1
  N  1301  1  0.10861400  0.61029500  0.70072700  1
  N  1304  1  0.16727200  0.69269200  0.69385500  1
  N  1313  1  0.03087010  0.65701700  0.69662200  1
  N  1314  1  0.24477000  0.64472900  0.69794800  1
  N  1316  1  0.66888500  0.16781500  0.94338600  1
  N  1319  1  0.58646600  0.10923100  0.95027500  1
  N  1328  1  0.62222000  0.24564900  0.94739100  1
  N  1329  1  0.63462100  0.03172510  0.94629800  1
  N  1331  1  0.16919400  0.60924800  0.44353700  1
  N  1334  1  0.11038000  0.69182800  0.45013600  1
  N  1343  1  0.24688000  0.65621800  0.44748800  1
  N  1344  1  0.03296810  0.64350400  0.44623600  1
  O  341  1  0.95603900  0.88733600  0.25778000  1
  O  356  1  0.13940400  0.95598500  0.75771800  1
  O  371  1  0.13977500  0.08298300  0.01937300  1
  O  386  1  0.94531800  0.14175000  0.51914000  1
  O  401  1  0.14142100  0.53652100  0.12150100  1
  O  416  1  0.48971800  0.14186000  0.62152400  1
  O  431  1  0.88684000  0.53655600  0.90526400  1
  O  446  1  0.53876800  0.14067400  0.40544800  1
  O  789  1  0.26861100  0.19990800  0.28708400  1
  O  804  1  0.45197600  0.26855700  0.78702200  1
  O  819  1  0.45234700  0.39555500  0.04867650  1
  O  834  1  0.25789000  0.45432200  0.54844400  1
  O  849  1  0.45399300  0.84909300  0.15080500  1
  O  864  1  0.80229000  0.45443200  0.65082800  1
  O  879  1  0.19941200  0.84912800  0.93456800  1
  O  894  1  0.85134000  0.45324600  0.43475200  1
  O  1237  1  0.58118300  0.51248000  0.31638700  1
  O  1252  1  0.76454800  0.58112900  0.81632500  1
  O  1267  1  0.76491900  0.70812700  0.07798000  1
  O  1282  1  0.57046200  0.76689400  0.57774700  1
  O  1297  1  0.76656500  0.16166500  0.18010800  1
  O  1312  1  0.11486200  0.76700400  0.68013100  1
  O  1327  1  0.51198400  0.16170000  0.96387100  1
  O  1342  1  0.16391200  0.76581800  0.46405500  1
