# generated using pymatgen
data_H7(C4O)3
_symmetry_space_group_name_H-M   'P 1'
_cell_length_a   47.22030000
_cell_length_b   47.22030000
_cell_length_c   47.22030000
_cell_angle_alpha   90.00000000
_cell_angle_beta   90.00000000
_cell_angle_gamma   90.00000000
_symmetry_Int_Tables_number   1
_chemical_formula_structural   H7(C4O)3
_chemical_formula_sum   'H672 C1152 O288'
_cell_volume   105289.78181631
_cell_formula_units_Z   96
loop_
 _symmetry_equiv_pos_site_id
 _symmetry_equiv_pos_as_xyz
  1  'x, y, z'
loop_
 _atom_site_type_symbol
 _atom_site_label
 _atom_site_symmetry_multiplicity
 _atom_site_fract_x
 _atom_site_fract_y
 _atom_site_fract_z
 _atom_site_occupancy
  H  7  1  0.24318400  0.17141700  0.40352100  1
  H  8  1  0.19630600  0.10147900  0.37466500  1
  H  15  1  0.35780000  0.16453600  0.45611500  1
  H  16  1  0.27201900  0.14054700  0.45491900  1
  H  19  1  0.30074400  0.08847200  0.38326500  1
  H  20  1  0.30827200  0.16432200  0.36265100  1
  H  27  1  0.81112000  0.88338700  0.40315500  1
  H  28  1  0.85818200  0.95315800  0.37419100  1
  H  35  1  0.69683400  0.89053900  0.45622300  1
  H  36  1  0.78267000  0.91435500  0.45459300  1
  H  39  1  0.75380300  0.96655500  0.38294600  1
  H  40  1  0.74582800  0.89061300  0.36252400  1
  H  47  1  0.81120000  0.17123500  0.64969700  1
  H  48  1  0.85817600  0.10146600  0.67879300  1
  H  55  1  0.69675800  0.16409600  0.59687900  1
  H  56  1  0.78259200  0.14028300  0.59839300  1
  H  59  1  0.75378400  0.08821900  0.67019900  1
  H  60  1  0.74593400  0.16408100  0.69050200  1
  H  67  1  0.24358800  0.88315400  0.64997700  1
  H  68  1  0.19682000  0.95317300  0.67881400  1
  H  75  1  0.35796900  0.88987400  0.59693600  1
  H  76  1  0.27223500  0.91405000  0.59847800  1
  H  79  1  0.30127300  0.96608900  0.67000900  1
  H  80  1  0.30879100  0.89010000  0.69059100  1
  H  87  1  0.40430500  0.24343300  0.17064400  1
  H  88  1  0.37527300  0.19664000  0.10072600  1
  H  95  1  0.45696900  0.35802800  0.16375000  1
  H  96  1  0.45567100  0.27224900  0.13972700  1
  H  99  1  0.38396800  0.30107600  0.08777100  1
  H  100  1  0.36346000  0.30855600  0.16364200  1
  H  107  1  0.40364400  0.81154300  0.88239200  1
  H  108  1  0.37506800  0.85826900  0.95254800  1
  H  115  1  0.45694100  0.69720000  0.88919400  1
  H  116  1  0.45524100  0.78299400  0.91314300  1
  H  119  1  0.38373300  0.75387100  0.96543700  1
  H  120  1  0.36316800  0.74613900  0.88943300  1
  H  127  1  0.65037900  0.81087000  0.17041800  1
  H  128  1  0.67950200  0.85812700  0.10085100  1
  H  135  1  0.59780000  0.69640200  0.16305400  1
  H  136  1  0.59912800  0.78225700  0.13931100  1
  H  139  1  0.67096800  0.75375600  0.08724200  1
  H  140  1  0.69130000  0.74576400  0.16312400  1
  H  147  1  0.65060800  0.24341000  0.88254400  1
  H  148  1  0.67957900  0.19653200  0.95243600  1
  H  155  1  0.59758200  0.35772800  0.88934900  1
  H  156  1  0.59915600  0.27196600  0.91342500  1
  H  159  1  0.67073500  0.30097000  0.96553000  1
  H  160  1  0.69125800  0.30865300  0.88962600  1
  H  167  1  0.17147000  0.40395300  0.24239600  1
  H  168  1  0.10132700  0.37516500  0.19578800  1
  H  175  1  0.16475700  0.45699000  0.35690000  1
  H  176  1  0.14075500  0.45547800  0.27112300  1
  H  179  1  0.08858100  0.38391100  0.30019700  1
  H  180  1  0.16447000  0.36332500  0.30772600  1
  H  187  1  0.88318000  0.40398700  0.81048800  1
  H  188  1  0.95306300  0.37520700  0.85749600  1
  H  195  1  0.89026800  0.45687400  0.69605200  1
  H  196  1  0.91416200  0.45542100  0.78186500  1
  H  199  1  0.96627100  0.38379100  0.75307500  1
  H  200  1  0.89031000  0.36327400  0.74533600  1
  H  207  1  0.17122400  0.65024800  0.81035300  1
  H  208  1  0.10158200  0.67937700  0.85750000  1
  H  215  1  0.16399000  0.59769000  0.69584100  1
  H  216  1  0.14011800  0.59896500  0.78166000  1
  H  219  1  0.08814900  0.67078400  0.75310200  1
  H  220  1  0.16404100  0.69115600  0.74530900  1
  H  227  1  0.88339400  0.65072700  0.24285700  1
  H  228  1  0.95324700  0.67974000  0.19595700  1
  H  235  1  0.89023200  0.59764600  0.35712600  1
  H  236  1  0.91424700  0.59930600  0.27134700  1
  H  239  1  0.96641300  0.67091900  0.30037900  1
  H  240  1  0.89050900  0.69137000  0.30820400  1
  H  247  1  0.17141700  0.24318400  0.64958900  1
  H  248  1  0.10147900  0.19630600  0.67844600  1
  H  255  1  0.16453600  0.35780000  0.59699800  1
  H  256  1  0.14054700  0.27201900  0.59819200  1
  H  259  1  0.08847200  0.30074400  0.66984600  1
  H  260  1  0.16432200  0.30827200  0.69046200  1
  H  267  1  0.88338700  0.81112000  0.64995600  1
  H  268  1  0.95315800  0.85818200  0.67892000  1
  H  275  1  0.89053700  0.69683400  0.59688700  1
  H  276  1  0.91435500  0.78267000  0.59851800  1
  H  279  1  0.96655500  0.75380300  0.67016500  1
  H  280  1  0.89061300  0.74582800  0.69058700  1
  H  287  1  0.17123500  0.81120000  0.40341300  1
  H  288  1  0.10146600  0.85817600  0.37431800  1
  H  295  1  0.16409600  0.69675800  0.45623200  1
  H  296  1  0.14028200  0.78259200  0.45471800  1
  H  299  1  0.08821900  0.75378400  0.38291200  1
  H  300  1  0.16408000  0.74593400  0.36260900  1
  H  307  1  0.88315400  0.24358800  0.40313400  1
  H  308  1  0.95317300  0.19682000  0.37429700  1
  H  315  1  0.88987400  0.35796900  0.45617500  1
  H  316  1  0.91405000  0.27223500  0.45463300  1
  H  319  1  0.96608900  0.30127300  0.38310200  1
  H  320  1  0.89010000  0.30879300  0.36252200  1
  H  327  1  0.24343300  0.40430500  0.88246800  1
  H  328  1  0.19664000  0.37527300  0.95238500  1
  H  335  1  0.35802800  0.45696900  0.88936100  1
  H  336  1  0.27224900  0.45567100  0.91338500  1
  H  339  1  0.30107600  0.38396800  0.96533900  1
  H  340  1  0.30855800  0.36346000  0.88946900  1
  H  347  1  0.81154300  0.40364400  0.17072000  1
  H  348  1  0.85826900  0.37506800  0.10056400  1
  H  355  1  0.69720000  0.45694100  0.16391800  1
  H  356  1  0.78299400  0.45524100  0.13996700  1
  H  359  1  0.75387100  0.38373300  0.08767400  1
  H  360  1  0.74613900  0.36316800  0.16367900  1
  H  367  1  0.81087000  0.65037900  0.88269300  1
  H  368  1  0.85812700  0.67950200  0.95226000  1
  H  375  1  0.69640200  0.59780000  0.89005800  1
  H  376  1  0.78225700  0.59912800  0.91380000  1
  H  379  1  0.75375600  0.67096800  0.96586900  1
  H  380  1  0.74576400  0.69130000  0.88998800  1
  H  387  1  0.24341000  0.65060800  0.17056600  1
  H  388  1  0.19653200  0.67957700  0.10067500  1
  H  395  1  0.35772800  0.59758200  0.16376300  1
  H  396  1  0.27196600  0.59915600  0.13968600  1
  H  399  1  0.30097000  0.67073700  0.08758100  1
  H  400  1  0.30865300  0.69125800  0.16348500  1
  H  407  1  0.40395300  0.17147000  0.81071500  1
  H  408  1  0.37516500  0.10132700  0.85732400  1
  H  415  1  0.45699000  0.16475700  0.69621100  1
  H  416  1  0.45548000  0.14075400  0.78199000  1
  H  419  1  0.38391100  0.08858100  0.75291400  1
  H  420  1  0.36332500  0.16447000  0.74538500  1
  H  427  1  0.40398500  0.88318000  0.24262200  1
  H  428  1  0.37520700  0.95306300  0.19561500  1
  H  435  1  0.45687400  0.89026800  0.35706000  1
  H  436  1  0.45542100  0.91416200  0.27124600  1
  H  439  1  0.38379100  0.96627100  0.30003600  1
  H  440  1  0.36327400  0.89031000  0.30777700  1
  H  447  1  0.65024800  0.17122400  0.24276000  1
  H  448  1  0.67937700  0.10158200  0.19561200  1
  H  455  1  0.59769000  0.16399000  0.35727000  1
  H  456  1  0.59896500  0.14011800  0.27145100  1
  H  459  1  0.67078400  0.08814900  0.30001100  1
  H  460  1  0.69115600  0.16404100  0.30780400  1
  H  467  1  0.65072700  0.88339400  0.81025600  1
  H  468  1  0.67974000  0.95324700  0.85715500  1
  H  475  1  0.59764600  0.89023200  0.69598500  1
  H  476  1  0.59930600  0.91424700  0.78176400  1
  H  479  1  0.67091900  0.96641300  0.75273200  1
  H  480  1  0.69137000  0.89050700  0.74490900  1
  H  487  1  0.81070200  0.89598600  0.63562500  1
  H  488  1  0.85705100  0.96236000  0.67297600  1
  H  495  1  0.69858700  0.89519100  0.58584800  1
  H  496  1  0.78216200  0.92646200  0.58279800  1
  H  499  1  0.75576600  0.98057400  0.65694600  1
  H  500  1  0.74954600  0.90298500  0.67656300  1
  H  507  1  0.24405200  0.15858800  0.63555700  1
  H  508  1  0.19781600  0.09199600  0.67265600  1
  H  515  1  0.35628300  0.15980600  0.58603800  1
  H  516  1  0.27282100  0.12826600  0.58279000  1
  H  519  1  0.29925100  0.07420000  0.65691700  1
  H  520  1  0.30512300  0.15173500  0.67665000  1
  H  527  1  0.24392100  0.89600900  0.41765300  1
  H  528  1  0.19752300  0.96249100  0.38055700  1
  H  535  1  0.35615200  0.89498400  0.46712500  1
  H  536  1  0.27262400  0.92634100  0.47049700  1
  H  539  1  0.29886300  0.98059300  0.39643800  1
  H  540  1  0.30492800  0.90309300  0.37657100  1
  H  547  1  0.81088000  0.15868800  0.41751100  1
  H  548  1  0.85723500  0.09228300  0.38021600  1
  H  555  1  0.69861700  0.15940000  0.46711300  1
  H  556  1  0.78222500  0.12824300  0.47034000  1
  H  559  1  0.75594600  0.07409400  0.39620300  1
  H  560  1  0.74979400  0.15164000  0.37649300  1
  H  567  1  0.63620300  0.81100300  0.89525500  1
  H  568  1  0.67366200  0.85733900  0.96158000  1
  H  575  1  0.58653400  0.69885000  0.89445000  1
  H  576  1  0.58341000  0.78249600  0.92552000  1
  H  579  1  0.65758400  0.75609700  0.97986700  1
  H  580  1  0.67724100  0.74976000  0.90249800  1
  H  587  1  0.63627300  0.24418300  0.15787300  1
  H  588  1  0.67339900  0.19767600  0.09148500  1
  H  595  1  0.58687700  0.35638900  0.15883300  1
  H  596  1  0.58354600  0.27288700  0.12740600  1
  H  599  1  0.65773400  0.29907900  0.07334400  1
  H  600  1  0.67742500  0.30514400  0.15086800  1
  H  607  1  0.41812100  0.24375500  0.89521700  1
  H  608  1  0.38092700  0.19766500  0.96185800  1
  H  615  1  0.46789000  0.35594900  0.89404600  1
  H  616  1  0.47101600  0.27244400  0.92549000  1
  H  619  1  0.39702800  0.29903000  0.97963800  1
  H  620  1  0.37718700  0.30493900  0.90210000  1
  H  627  1  0.41831200  0.81055600  0.15789100  1
  H  628  1  0.38126800  0.85693000  0.09135900  1
  H  635  1  0.46788400  0.69827600  0.15873300  1
  H  636  1  0.47118500  0.78179300  0.12734700  1
  H  639  1  0.39708100  0.75560500  0.07328500  1
  H  640  1  0.37732900  0.74959900  0.15104300  1
  H  647  1  0.89604900  0.63615500  0.80978700  1
  H  648  1  0.96227100  0.67343300  0.85641400  1
  H  655  1  0.89538200  0.58665200  0.69764300  1
  H  656  1  0.92654500  0.58341900  0.78125100  1
  H  659  1  0.98072500  0.65763900  0.75511000  1
  H  660  1  0.90325200  0.67726000  0.74875400  1
  H  667  1  0.15869700  0.63633200  0.24311800  1
  H  668  1  0.09223300  0.67367700  0.19689100  1
  H  675  1  0.15965800  0.58667800  0.35532400  1
  H  676  1  0.12847800  0.58355200  0.27172000  1
  H  679  1  0.07420400  0.65770200  0.29821500  1
  H  680  1  0.15157400  0.67738900  0.30438000  1
  H  687  1  0.89592000  0.41811700  0.24301800  1
  H  688  1  0.96264600  0.38095900  0.19702300  1
  H  695  1  0.89467300  0.46799800  0.35519700  1
  H  696  1  0.92621000  0.47110000  0.27172600  1
  H  699  1  0.98037500  0.39717000  0.29834200  1
  H  700  1  0.90270500  0.37728700  0.30420000  1
  H  707  1  0.15856600  0.41832400  0.80999500  1
  H  708  1  0.09209600  0.38127700  0.85645400  1
  H  715  1  0.15945500  0.46769900  0.69768900  1
  H  716  1  0.12801800  0.47111700  0.78118300  1
  H  719  1  0.07402300  0.39696900  0.75506500  1
  H  720  1  0.15169100  0.37721700  0.74912700  1
  H  727  1  0.89598600  0.81070200  0.41748600  1
  H  728  1  0.96236000  0.85705100  0.38013500  1
  H  735  1  0.89519400  0.69858700  0.46726300  1
  H  736  1  0.92646200  0.78216200  0.47031300  1
  H  739  1  0.98057400  0.75576600  0.39616400  1
  H  740  1  0.90298500  0.74954600  0.37655000  1
  H  747  1  0.15858800  0.24405200  0.41755600  1
  H  748  1  0.09199600  0.19781600  0.38045500  1
  H  755  1  0.15980500  0.35628300  0.46707300  1
  H  756  1  0.12826500  0.27282100  0.47032300  1
  H  759  1  0.07420000  0.29925100  0.39619400  1
  H  760  1  0.15173500  0.30512500  0.37646100  1
  H  767  1  0.89600900  0.24392100  0.63545800  1
  H  768  1  0.96249100  0.19752300  0.67255400  1
  H  775  1  0.89498400  0.35615200  0.58598500  1
  H  776  1  0.92634100  0.27262400  0.58261400  1
  H  779  1  0.98059300  0.29886300  0.65667300  1
  H  780  1  0.90309300  0.30492800  0.67654000  1
  H  787  1  0.15868800  0.81088000  0.63560200  1
  H  788  1  0.09228300  0.85723500  0.67289500  1
  H  795  1  0.15940000  0.69861700  0.58600000  1
  H  796  1  0.12824400  0.78222500  0.58277100  1
  H  799  1  0.07409400  0.75594600  0.65690800  1
  H  800  1  0.15164100  0.74979400  0.67662000  1
  H  807  1  0.81100300  0.63620300  0.15785700  1
  H  808  1  0.85733900  0.67366200  0.09153100  1
  H  815  1  0.69885000  0.58653400  0.15866000  1
  H  816  1  0.78249600  0.58341000  0.12759100  1
  H  819  1  0.75609700  0.65758400  0.07324500  1
  H  820  1  0.74976200  0.67724100  0.15061300  1
  H  827  1  0.24418300  0.63627300  0.89523800  1
  H  828  1  0.19767700  0.67339900  0.96162700  1
  H  835  1  0.35638900  0.58687700  0.89427900  1
  H  836  1  0.27288700  0.58354600  0.92570600  1
  H  839  1  0.29907900  0.65773400  0.97976700  1
  H  840  1  0.30514400  0.67742500  0.90224400  1
  H  847  1  0.24375500  0.41812100  0.15789500  1
  H  848  1  0.19766500  0.38092700  0.09125300  1
  H  855  1  0.35594900  0.46789000  0.15906500  1
  H  856  1  0.27244400  0.47101600  0.12762100  1
  H  859  1  0.29903000  0.39702800  0.07347200  1
  H  860  1  0.30493900  0.37718700  0.15101100  1
  H  867  1  0.81055600  0.41831200  0.89522100  1
  H  868  1  0.85693000  0.38126800  0.96175200  1
  H  875  1  0.69827600  0.46788400  0.89437800  1
  H  876  1  0.78179300  0.47118500  0.92576500  1
  H  879  1  0.75560500  0.39708100  0.97982700  1
  H  880  1  0.74959900  0.37732900  0.90206800  1
  H  887  1  0.63615500  0.89604900  0.24332300  1
  H  888  1  0.67343300  0.96227100  0.19669700  1
  H  895  1  0.58665200  0.89538200  0.35546800  1
  H  896  1  0.58341900  0.92654500  0.27186000  1
  H  899  1  0.65763900  0.98072500  0.29800100  1
  H  900  1  0.67726000  0.90325200  0.30435600  1
  H  907  1  0.63633500  0.15869700  0.80999300  1
  H  908  1  0.67367700  0.09223300  0.85622100  1
  H  915  1  0.58667800  0.15965900  0.69778700  1
  H  916  1  0.58355200  0.12847800  0.78139100  1
  H  919  1  0.65770200  0.07420400  0.75489600  1
  H  920  1  0.67739100  0.15157400  0.74873300  1
  H  927  1  0.41811700  0.89592000  0.81009200  1
  H  928  1  0.38095900  0.96264600  0.85608700  1
  H  935  1  0.46799800  0.89467300  0.69791400  1
  H  936  1  0.47110000  0.92621000  0.78138400  1
  H  939  1  0.39717000  0.98037500  0.75476900  1
  H  940  1  0.37728700  0.90270500  0.74891100  1
  H  947  1  0.41832400  0.15856600  0.24311600  1
  H  948  1  0.38127700  0.09209600  0.19665800  1
  H  955  1  0.46769900  0.15945500  0.35542300  1
  H  956  1  0.47111700  0.12801900  0.27192800  1
  H  959  1  0.39696900  0.07402300  0.29804600  1
  H  960  1  0.37721700  0.15169100  0.30398400  1
  H  967  1  0.19002400  0.15341800  0.43363600  1
  H  969  1  0.14862000  0.19688200  0.35012900  1
  H  971  1  0.20421700  0.17639400  0.33441100  1
  H  972  1  0.16403900  0.19944100  0.45486200  1
  H  979  1  0.86427500  0.90137500  0.43322500  1
  H  981  1  0.90577200  0.85772200  0.34986400  1
  H  983  1  0.85013700  0.87812700  0.33405300  1
  H  984  1  0.89032300  0.85544200  0.45461000  1
  H  991  1  0.86422000  0.15335100  0.61960900  1
  H  993  1  0.90602600  0.19671800  0.70296100  1
  H  995  1  0.85043700  0.17629300  0.71889400  1
  H  996  1  0.89020400  0.19930800  0.59827000  1
  H  1003  1  0.19037500  0.90157200  0.61988600  1
  H  1005  1  0.14903800  0.85768200  0.70320600  1
  H  1007  1  0.20475700  0.87785800  0.71891800  1
  H  1008  1  0.16414500  0.85573200  0.59844000  1
  H  1015  1  0.43435800  0.19032100  0.15257400  1
  H  1017  1  0.35090600  0.14871500  0.19595100  1
  H  1019  1  0.33514200  0.20438700  0.17565100  1
  H  1020  1  0.45563000  0.16418200  0.19849700  1
  H  1027  1  0.43373700  0.86506500  0.90126500  1
  H  1029  1  0.35051000  0.90548400  0.85634800  1
  H  1031  1  0.33505500  0.84978300  0.87661700  1
  H  1032  1  0.45530000  0.89123600  0.85530400  1
  H  1039  1  0.62024400  0.86374300  0.15304100  1
  H  1041  1  0.70368100  0.90610400  0.19569400  1
  H  1043  1  0.71977500  0.85053500  0.17519200  1
  H  1044  1  0.59901600  0.88968700  0.19897400  1
  H  1051  1  0.62054900  0.19027900  0.90065700  1
  H  1053  1  0.70393500  0.14884000  0.85699000  1
  H  1055  1  0.71971400  0.20446100  0.87737900  1
  H  1056  1  0.59918100  0.16424000  0.85472400  1
  H  1063  1  0.15283600  0.43396800  0.18897700  1
  H  1065  1  0.19716700  0.35057400  0.14827400  1
  H  1067  1  0.17687500  0.33510800  0.20397700  1
  H  1068  1  0.19878500  0.45536400  0.16280400  1
  H  1075  1  0.90133500  0.43414800  0.86368000  1
  H  1077  1  0.85750600  0.35082000  0.90506400  1
  H  1079  1  0.87787900  0.33503800  0.84942900  1
  H  1080  1  0.85536100  0.45554800  0.88974300  1
  H  1087  1  0.15378800  0.62016100  0.86328800  1
  H  1089  1  0.19657300  0.70368700  0.90534800  1
  H  1091  1  0.17597900  0.71965000  0.84980400  1
  H  1092  1  0.19981800  0.59901200  0.88917500  1
  H  1099  1  0.90155300  0.62063800  0.18979600  1
  H  1101  1  0.85794900  0.70390300  0.14805900  1
  H  1103  1  0.87817500  0.71980900  0.20372500  1
  H  1104  1  0.85574400  0.59916400  0.16365700  1
  H  1111  1  0.15341700  0.19002400  0.61947500  1
  H  1113  1  0.19688300  0.14862000  0.70298200  1
  H  1115  1  0.17639400  0.20421700  0.71870000  1
  H  1116  1  0.19944000  0.16403900  0.59824900  1
  H  1123  1  0.90137700  0.86427500  0.61988600  1
  H  1125  1  0.85772000  0.90577000  0.70324900  1
  H  1127  1  0.87812700  0.85013700  0.71905700  1
  H  1128  1  0.85544400  0.89032300  0.59850300  1
  H  1135  1  0.15335100  0.86422000  0.43350200  1
  H  1137  1  0.19671800  0.90602800  0.35015000  1
  H  1139  1  0.17629300  0.85044000  0.33421600  1
  H  1140  1  0.19930900  0.89020200  0.45484000  1
  H  1147  1  0.90157000  0.19037600  0.43322700  1
  H  1149  1  0.85768200  0.14903700  0.34990500  1
  H  1151  1  0.87785800  0.20475600  0.33419300  1
  H  1152  1  0.85573200  0.16414500  0.45467100  1
  H  1159  1  0.19032100  0.43435800  0.90053700  1
  H  1161  1  0.14871500  0.35090600  0.85716100  1
  H  1163  1  0.20438800  0.33514200  0.87746000  1
  H  1164  1  0.16418200  0.45563000  0.85461400  1
  H  1171  1  0.86506500  0.43373700  0.15184600  1
  H  1173  1  0.90548400  0.35051200  0.19676300  1
  H  1175  1  0.84978300  0.33505500  0.17649400  1
  H  1176  1  0.89123600  0.45530000  0.19780800  1
  H  1183  1  0.86374300  0.62024400  0.90007100  1
  H  1185  1  0.90610400  0.70368100  0.85741700  1
  H  1187  1  0.85053500  0.71977500  0.87791900  1
  H  1188  1  0.88968700  0.59901600  0.85413700  1
  H  1195  1  0.19027900  0.62054900  0.15245500  1
  H  1197  1  0.14884000  0.70393500  0.19612100  1
  H  1199  1  0.20446100  0.71971200  0.17573100  1
  H  1200  1  0.16424000  0.59918100  0.19838800  1
  H  1207  1  0.43396800  0.15283600  0.86413500  1
  H  1209  1  0.35057400  0.19716700  0.90483800  1
  H  1211  1  0.33510800  0.17687500  0.84913500  1
  H  1212  1  0.45536400  0.19878600  0.89030800  1
  H  1219  1  0.43414800  0.90133500  0.18943100  1
  H  1221  1  0.35082000  0.85750600  0.14804700  1
  H  1223  1  0.33503800  0.87787900  0.20368200  1
  H  1224  1  0.45554800  0.85536100  0.16336800  1
  H  1231  1  0.62016100  0.15378800  0.18982400  1
  H  1233  1  0.70368700  0.19657300  0.14776200  1
  H  1235  1  0.71965000  0.17597900  0.20330700  1
  H  1236  1  0.59901200  0.19981800  0.16393600  1
  H  1243  1  0.62063800  0.90155300  0.86331500  1
  H  1245  1  0.70390300  0.85794900  0.90505200  1
  H  1247  1  0.71980900  0.87817500  0.84938500  1
  H  1248  1  0.59916400  0.85574400  0.88945500  1
  H  1255  1  0.67244200  0.63810900  0.93288500  1
  H  1257  1  0.65823200  0.70830100  0.85924700  1
  H  1259  1  0.69766000  0.65959600  0.83671000  1
  H  1260  1  0.64093800  0.68265400  0.95718200  1
  H  1267  1  0.38211300  0.41693700  0.93204200  1
  H  1269  1  0.39606300  0.34625200  0.85882600  1
  H  1271  1  0.35660100  0.39483900  0.83611100  1
  H  1272  1  0.41371000  0.37251100  0.95652700  1
  H  1279  1  0.38189100  0.63761200  0.12092800  1
  H  1281  1  0.39613700  0.70820200  0.19418900  1
  H  1283  1  0.35656700  0.65967000  0.21693900  1
  H  1284  1  0.41351300  0.68199300  0.09642800  1
  H  1291  1  0.67309200  0.41704300  0.12103500  1
  H  1293  1  0.65849900  0.34641700  0.19419900  1
  H  1295  1  0.69812800  0.39480100  0.21707400  1
  H  1296  1  0.64139400  0.37279100  0.09641000  1
  H  1303  1  0.93345300  0.67278500  0.63701900  1
  H  1305  1  0.86001600  0.65825900  0.70736100  1
  H  1307  1  0.83728800  0.69778700  0.65880600  1
  H  1308  1  0.95791900  0.64121600  0.68142300  1
  H  1315  1  0.93258000  0.38216200  0.41618300  1
  H  1317  1  0.85939500  0.39620300  0.34547400  1
  H  1319  1  0.83664900  0.35668600  0.39404000  1
  H  1320  1  0.95709700  0.41376100  0.37178500  1
  H  1327  1  0.12174800  0.38178700  0.63697400  1
  H  1329  1  0.19484400  0.39590600  0.70775500  1
  H  1331  1  0.21769700  0.35641200  0.65924400  1
  H  1332  1  0.09716200  0.41339200  0.68134100  1
  H  1339  1  0.12129400  0.67266600  0.41605400  1
  H  1341  1  0.19486500  0.65838900  0.34579200  1
  H  1343  1  0.21740400  0.69793100  0.39437900  1
  H  1344  1  0.09696800  0.64102300  0.37160900  1
  H  1351  1  0.63778500  0.93317300  0.67184700  1
  H  1353  1  0.70819100  0.85976200  0.65749900  1
  H  1355  1  0.65956800  0.83705100  0.69698900  1
  H  1356  1  0.68223400  0.95763500  0.64034500  1
  H  1363  1  0.41688600  0.93301000  0.38110700  1
  H  1365  1  0.34627100  0.85978300  0.39540000  1
  H  1367  1  0.39475200  0.83701100  0.35584700  1
  H  1368  1  0.37253700  0.95753500  0.41278700  1
  H  1375  1  0.63791900  0.12124900  0.38125800  1
  H  1377  1  0.70829500  0.19474500  0.39534100  1
  H  1379  1  0.65962100  0.21733700  0.35589600  1
  H  1380  1  0.68244200  0.09690100  0.41279900  1
  H  1387  1  0.41708600  0.12195100  0.67206700  1
  H  1389  1  0.34637700  0.19508700  0.65778300  1
  H  1391  1  0.39480100  0.21789800  0.69738900  1
  H  1392  1  0.37280800  0.09737300  0.64036700  1
  H  1399  1  0.63810900  0.67244200  0.12022700  1
  H  1401  1  0.70830100  0.65823200  0.19386400  1
  H  1403  1  0.65959600  0.69766000  0.21640100  1
  H  1404  1  0.68265400  0.64093800  0.09592900  1
  H  1411  1  0.41693700  0.38211300  0.12106800  1
  H  1413  1  0.34625200  0.39606300  0.19428600  1
  H  1415  1  0.39483900  0.35660100  0.21700200  1
  H  1416  1  0.37251100  0.41371000  0.09658500  1
  H  1423  1  0.63761200  0.38189100  0.93218200  1
  H  1425  1  0.70820200  0.39613700  0.85892100  1
  H  1427  1  0.65967000  0.35656700  0.83617200  1
  H  1428  1  0.68199300  0.41351300  0.95668200  1
  H  1435  1  0.41704300  0.67309200  0.93207600  1
  H  1437  1  0.34641700  0.65849900  0.85891300  1
  H  1439  1  0.39480100  0.69812800  0.83603700  1
  H  1440  1  0.37279100  0.64139400  0.95670100  1
  H  1447  1  0.67278500  0.93345300  0.41609200  1
  H  1449  1  0.65825700  0.86001600  0.34575000  1
  H  1451  1  0.69778700  0.83728800  0.39430700  1
  H  1452  1  0.64121600  0.95791900  0.37168800  1
  H  1459  1  0.38216000  0.93257800  0.63693000  1
  H  1461  1  0.39620300  0.85939500  0.70763600  1
  H  1463  1  0.35668600  0.83664900  0.65907000  1
  H  1464  1  0.41376100  0.95709700  0.68132600  1
  H  1471  1  0.38178700  0.12174800  0.41613900  1
  H  1473  1  0.39590600  0.19484400  0.34535800  1
  H  1475  1  0.35641200  0.21769700  0.39386900  1
  H  1476  1  0.41339200  0.09716200  0.37177000  1
  H  1483  1  0.67266600  0.12129400  0.63705700  1
  H  1485  1  0.65838900  0.19486500  0.70731900  1
  H  1487  1  0.69793100  0.21740400  0.65873200  1
  H  1488  1  0.64102300  0.09696800  0.68150200  1
  H  1495  1  0.93317300  0.63778500  0.38126400  1
  H  1497  1  0.85976400  0.70819100  0.39561200  1
  H  1499  1  0.83705100  0.65956800  0.35612200  1
  H  1500  1  0.95763500  0.68223400  0.41276500  1
  H  1507  1  0.93301000  0.41688600  0.67200300  1
  H  1509  1  0.85978300  0.34627100  0.65771300  1
  H  1511  1  0.83701100  0.39475200  0.69726400  1
  H  1512  1  0.95753500  0.37253700  0.64032400  1
  H  1519  1  0.12125000  0.63791900  0.67185300  1
  H  1521  1  0.19474500  0.70829500  0.65777000  1
  H  1523  1  0.21733700  0.65962100  0.69721500  1
  H  1524  1  0.09690200  0.68244200  0.64031200  1
  H  1531  1  0.12195100  0.41708600  0.38104400  1
  H  1533  1  0.19508700  0.34637700  0.39532800  1
  H  1535  1  0.21789800  0.39480100  0.35572400  1
  H  1536  1  0.09737200  0.37280800  0.41274400  1
  H  1543  1  0.20871900  0.06152500  0.41774800  1
  H  1545  1  0.26415800  0.00396600  0.35312200  1
  H  1547  1  0.25590100  0.06381100  0.32761100  1
  H  1548  1  0.21765200  0.00711900  0.44430500  1
  H  1555  1  0.84582900  0.99312200  0.41740700  1
  H  1557  1  0.79067900  0.05088700  0.35272300  1
  H  1559  1  0.79881600  0.99107200  0.32716400  1
  H  1560  1  0.83699200  0.04749300  0.44400800  1
  H  1567  1  0.84579700  0.06145400  0.63573300  1
  H  1569  1  0.79048200  0.00384200  0.70041500  1
  H  1571  1  0.79869700  0.06370500  0.72592100  1
  H  1572  1  0.83688600  0.00707200  0.60918100  1
  H  1579  1  0.20923800  0.99299900  0.63558900  1
  H  1581  1  0.26458500  0.05069700  0.70016700  1
  H  1583  1  0.25643200  0.99092800  0.72574100  1
  H  1584  1  0.21807600  0.04742600  0.60899200  1
  H  1591  1  0.41829300  0.20896800  0.06076200  1
  H  1593  1  0.35370400  0.26448000  0.00323100  1
  H  1595  1  0.32825700  0.25635400  0.06310300  1
  H  1596  1  0.44477900  0.21776700  0.00628700  1
  H  1603  1  0.41862700  0.84542900  0.99228700  1
  H  1605  1  0.35359400  0.79060700  0.04998400  1
  H  1607  1  0.32799900  0.79909500  0.99031600  1
  H  1608  1  0.44521300  0.83623800  0.04666600  1
  H  1615  1  0.63652300  0.84594800  0.06077800  1
  H  1617  1  0.70110300  0.79071500  0.00297500  1
  H  1619  1  0.72664300  0.79872900  0.06288200  1
  H  1620  1  0.60992000  0.83722900  0.00642900  1
  H  1627  1  0.63647000  0.20883800  0.99238700  1
  H  1629  1  0.70095700  0.26437800  0.04999800  1
  H  1631  1  0.72651200  0.25619700  0.99017000  1
  H  1632  1  0.60986500  0.21770100  0.04677600  1
  H  1639  1  0.06152200  0.41850200  0.20841600  1
  H  1641  1  0.00395700  0.35369800  0.26364700  1
  H  1643  1  0.06370900  0.32817900  0.25530600  1
  H  1644  1  0.00706100  0.44502100  0.21743400  1
  H  1651  1  0.99298800  0.41843500  0.84500100  1
  H  1653  1  0.05069400  0.35363600  0.78992100  1
  H  1655  1  0.99090000  0.32810000  0.79815900  1
  H  1656  1  0.04737900  0.44500400  0.83606400  1
  H  1663  1  0.06147100  0.63642300  0.84527200  1
  H  1665  1  0.00385500  0.70099700  0.78984300  1
  H  1667  1  0.06377600  0.72649700  0.79799200  1
  H  1668  1  0.00712500  0.60984600  0.83641600  1
  H  1675  1  0.99314700  0.63661600  0.20823000  1
  H  1677  1  0.05089500  0.70108600  0.26364500  1
  H  1679  1  0.99108500  0.72667500  0.25558300  1
  H  1680  1  0.04753700  0.60998800  0.21697500  1
  H  1687  1  0.06152500  0.20871900  0.63536200  1
  H  1689  1  0.00396600  0.26415800  0.69998900  1
  H  1691  1  0.06381100  0.25590100  0.72550200  1
  H  1692  1  0.00711900  0.21765200  0.60880600  1
  H  1699  1  0.99312200  0.84582900  0.63570300  1
  H  1701  1  0.05088700  0.79067900  0.70038700  1
  H  1703  1  0.99107400  0.79881600  0.72594600  1
  H  1704  1  0.04749300  0.83699200  0.60910500  1
  H  1711  1  0.06145400  0.84579700  0.41737800  1
  H  1713  1  0.00384300  0.79048200  0.35269600  1
  H  1715  1  0.06370500  0.79869700  0.32719000  1
  H  1716  1  0.00707200  0.83688600  0.44393000  1
  H  1723  1  0.99299900  0.20923800  0.41752200  1
  H  1725  1  0.05069700  0.26458500  0.35294600  1
  H  1727  1  0.99092800  0.25643200  0.32737200  1
  H  1728  1  0.04742500  0.21807600  0.44411800  1
  H  1735  1  0.20896800  0.41829300  0.99234900  1
  H  1737  1  0.26448000  0.35370400  0.04988000  1
  H  1739  1  0.25635400  0.32825700  0.99000900  1
  H  1740  1  0.21776700  0.44477900  0.04682500  1
  H  1747  1  0.84542900  0.41862700  0.06082300  1
  H  1749  1  0.79060700  0.35359400  0.00312700  1
  H  1751  1  0.79909500  0.32799900  0.06279500  1
  H  1752  1  0.83623800  0.44521300  0.00644500  1
  H  1759  1  0.84594800  0.63652300  0.99233400  1
  H  1761  1  0.79071500  0.70110300  0.05013600  1
  H  1763  1  0.79872900  0.72664300  0.99022900  1
  H  1764  1  0.83722900  0.60992000  0.04668200  1
  H  1771  1  0.20883800  0.63647000  0.06072300  1
  H  1773  1  0.26437800  0.70095700  0.00311400  1
  H  1775  1  0.25619700  0.72651200  0.06294100  1
  H  1776  1  0.21770100  0.60986500  0.00633600  1
  H  1783  1  0.41850200  0.06152200  0.84469600  1
  H  1785  1  0.35369800  0.00395700  0.78946400  1
  H  1787  1  0.32817900  0.06370900  0.79780500  1
  H  1788  1  0.44502100  0.00706100  0.83567700  1
  H  1795  1  0.41843500  0.99298800  0.20811100  1
  H  1797  1  0.35363600  0.05069400  0.26319000  1
  H  1799  1  0.32810000  0.99090000  0.25495200  1
  H  1800  1  0.44500400  0.04737800  0.21704700  1
  H  1807  1  0.63642300  0.06147100  0.20783900  1
  H  1809  1  0.70099700  0.00385500  0.26326800  1
  H  1811  1  0.72649700  0.06377600  0.25511900  1
  H  1812  1  0.60984600  0.00712500  0.21669500  1
  H  1819  1  0.63661600  0.99314700  0.84488300  1
  H  1821  1  0.70108600  0.05089500  0.78946600  1
  H  1823  1  0.72667500  0.99108500  0.79752800  1
  H  1824  1  0.60998800  0.04753700  0.83613800  1
  H  1831  1  0.74932000  0.56319000  0.94614800  1
  H  1833  1  0.72987500  0.50510100  0.86369400  1
  H  1835  1  0.70839300  0.55693900  0.84889800  1
  H  1836  1  0.76975000  0.51298100  0.96246300  1
  H  1843  1  0.30528800  0.49142200  0.94571600  1
  H  1845  1  0.32466300  0.54982300  0.86347000  1
  H  1847  1  0.34601700  0.49802300  0.84840000  1
  H  1848  1  0.28496600  0.54160600  0.96226900  1
  H  1855  1  0.30485400  0.56316900  0.10747700  1
  H  1857  1  0.32418500  0.50492500  0.18984400  1
  H  1859  1  0.34561200  0.55669300  0.20480000  1
  H  1860  1  0.28446000  0.51296200  0.09103400  1
  H  1867  1  0.75025400  0.49113000  0.10764600  1
  H  1869  1  0.73058400  0.54967300  0.18972100  1
  H  1871  1  0.70918000  0.49796200  0.20482300  1
  H  1872  1  0.77066000  0.54130800  0.09109300  1
  H  1879  1  0.94666700  0.74989200  0.56251200  1
  H  1881  1  0.86437000  0.73028800  0.50426000  1
  H  1883  1  0.84945900  0.70885000  0.55602600  1
  H  1884  1  0.96306300  0.77030000  0.51229200  1
  H  1891  1  0.94630500  0.30514600  0.49048200  1
  H  1893  1  0.86409300  0.32443900  0.54895900  1
  H  1895  1  0.84898700  0.34587700  0.49723300  1
  H  1896  1  0.96287000  0.28472100  0.54063600  1
  H  1903  1  0.10823500  0.30513600  0.56244300  1
  H  1905  1  0.19055000  0.32450700  0.50413500  1
  H  1907  1  0.20557700  0.34579800  0.55599200  1
  H  1908  1  0.09168900  0.28490100  0.51223300  1
  H  1915  1  0.10795000  0.74979000  0.49066800  1
  H  1917  1  0.19027100  0.73024500  0.54891000  1
  H  1919  1  0.20515000  0.70874000  0.49714200  1
  H  1920  1  0.09159500  0.77027700  0.54086700  1
  H  1927  1  0.56322400  0.94643800  0.74891700  1
  H  1929  1  0.50508200  0.86398000  0.72965700  1
  H  1931  1  0.55685400  0.84910700  0.70817000  1
  H  1932  1  0.51301300  0.96281100  0.76935800  1
  H  1939  1  0.49121000  0.94654600  0.30412800  1
  H  1941  1  0.54969800  0.86442500  0.32377000  1
  H  1943  1  0.49794100  0.84934000  0.34513600  1
  H  1944  1  0.54139900  0.96309000  0.28377000  1
  H  1951  1  0.56311800  0.10777200  0.30446000  1
  H  1953  1  0.50490800  0.19016100  0.32381000  1
  H  1955  1  0.55673300  0.20506400  0.34526500  1
  H  1956  1  0.51293400  0.09135600  0.28405600  1
  H  1963  1  0.49132100  0.10846200  0.74912500  1
  H  1965  1  0.54975700  0.19063900  0.72955700  1
  H  1967  1  0.49799600  0.20570000  0.70819100  1
  H  1968  1  0.54152100  0.09193600  0.76947900  1
  H  1975  1  0.56319000  0.74932000  0.10696400  1
  H  1977  1  0.50510100  0.72987500  0.18941600  1
  H  1979  1  0.55693900  0.70839300  0.20421400  1
  H  1980  1  0.51298100  0.76975000  0.09064700  1
  H  1987  1  0.49142200  0.30528800  0.10739400  1
  H  1989  1  0.54982300  0.32466300  0.18964200  1
  H  1991  1  0.49802300  0.34601700  0.20471100  1
  H  1992  1  0.54160600  0.28496600  0.09084200  1
  H  1999  1  0.56316900  0.30485400  0.94563400  1
  H  2001  1  0.50492500  0.32418500  0.86326700  1
  H  2003  1  0.55669300  0.34561200  0.84831100  1
  H  2004  1  0.51296200  0.28446000  0.96207800  1
  H  2011  1  0.49113000  0.75025400  0.94546600  1
  H  2013  1  0.54967300  0.73058400  0.86338900  1
  H  2015  1  0.49796200  0.70918000  0.84828800  1
  H  2016  1  0.54130800  0.77066000  0.96201900  1
  H  2023  1  0.74989200  0.94666700  0.49060100  1
  H  2025  1  0.73028800  0.86437000  0.54885100  1
  H  2027  1  0.70885000  0.84945900  0.49708500  1
  H  2028  1  0.77030000  0.96306300  0.54082000  1
  H  2035  1  0.30514600  0.94630500  0.56262900  1
  H  2037  1  0.32443900  0.86409300  0.50415400  1
  H  2039  1  0.34587700  0.84898700  0.55588000  1
  H  2040  1  0.28472100  0.96287000  0.51247700  1
  H  2047  1  0.30513600  0.10823500  0.49066800  1
  H  2049  1  0.32450700  0.19055000  0.54897600  1
  H  2051  1  0.34579800  0.20557700  0.49711900  1
  H  2052  1  0.28490100  0.09168900  0.54087800  1
  H  2059  1  0.74979000  0.10795000  0.56244300  1
  H  2061  1  0.73024500  0.19027100  0.50420100  1
  H  2063  1  0.70874000  0.20515000  0.55597100  1
  H  2064  1  0.77027700  0.09159400  0.51224400  1
  H  2071  1  0.94643800  0.56322400  0.30419300  1
  H  2073  1  0.86398000  0.50508200  0.32345400  1
  H  2075  1  0.84910700  0.55685400  0.34494100  1
  H  2076  1  0.96281100  0.51301300  0.28375300  1
  H  2083  1  0.94654600  0.49121000  0.74898300  1
  H  2085  1  0.86442500  0.54969800  0.72934100  1
  H  2087  1  0.84934000  0.49794100  0.70797500  1
  H  2088  1  0.96309000  0.54139900  0.76934100  1
  H  2095  1  0.10777200  0.56311800  0.74865300  1
  H  2097  1  0.19016100  0.50490800  0.72930300  1
  H  2099  1  0.20506400  0.55673300  0.70784600  1
  H  2100  1  0.09135600  0.51293200  0.76905500  1
  H  2107  1  0.10846200  0.49132100  0.30398600  1
  H  2109  1  0.19063900  0.54975700  0.32355400  1
  H  2111  1  0.20569900  0.49799600  0.34492200  1
  H  2112  1  0.09193600  0.54152100  0.28363200  1
  C  1  1  0.26677100  0.13357900  0.40007400  1
  C  2  1  0.24252900  0.15069900  0.39700100  1
  C  3  1  0.21684500  0.13922500  0.38693500  1
  C  4  1  0.21545000  0.11022700  0.38001200  1
  C  5  1  0.23945400  0.09259600  0.38311100  1
  C  6  1  0.26527200  0.10445800  0.39295800  1
  C  9  1  0.29066500  0.14466100  0.41443400  1
  C  10  1  0.31595700  0.15128200  0.39980900  1
  C  11  1  0.34055700  0.15916300  0.41515400  1
  C  12  1  0.33961500  0.16035400  0.44501200  1
  C  13  1  0.31441800  0.15403300  0.45981300  1
  C  14  1  0.29008100  0.14624200  0.44427900  1
  C  21  1  0.78764200  0.92130100  0.39970500  1
  C  22  1  0.81180600  0.90407700  0.39655000  1
  C  23  1  0.83751700  0.91548100  0.38646100  1
  C  24  1  0.83901200  0.94448000  0.37956800  1
  C  25  1  0.81505900  0.96216900  0.38268100  1
  C  26  1  0.78921600  0.95041300  0.39257700  1
  C  29  1  0.76379000  0.91030600  0.41420800  1
  C  30  1  0.73841400  0.90372800  0.39971200  1
  C  31  1  0.71388400  0.89588200  0.41518800  1
  C  32  1  0.71497900  0.89467300  0.44503800  1
  C  33  1  0.74026000  0.90096400  0.45970500  1
  C  34  1  0.76452900  0.90872600  0.44405100  1
  C  41  1  0.78766800  0.13337500  0.65326600  1
  C  42  1  0.81188000  0.15054400  0.65629800  1
  C  43  1  0.83758100  0.13914400  0.66640800  1
  C  44  1  0.83901600  0.11017100  0.67343300  1
  C  45  1  0.81504400  0.09249200  0.67037500  1
  C  46  1  0.78921200  0.10428000  0.66047500  1
  C  49  1  0.76378600  0.14436200  0.63881000  1
  C  50  1  0.73843000  0.15094400  0.65334200  1
  C  51  1  0.71387700  0.15877600  0.63790000  1
  C  52  1  0.71491100  0.15994100  0.60804400  1
  C  53  1  0.74017300  0.15365700  0.59334200  1
  C  54  1  0.76447400  0.14592900  0.60896500  1
  C  61  1  0.26722400  0.92097700  0.65335900  1
  C  62  1  0.24299100  0.90385900  0.65654600  1
  C  63  1  0.21733000  0.91539000  0.66666667  1
  C  64  1  0.21595400  0.94440800  0.67345000  1
  C  65  1  0.23997700  0.96199300  0.67029900  1
  C  66  1  0.26577100  0.95011100  0.66042600  1
  C  69  1  0.29103200  0.90985500  0.63888200  1
  C  70  1  0.31635800  0.90315000  0.65341000  1
  C  71  1  0.34087500  0.89521300  0.63795900  1
  C  72  1  0.33982200  0.89405200  0.60810300  1
  C  73  1  0.31459100  0.90047900  0.59340600  1
  C  74  1  0.29033100  0.90831500  0.60903700  1
  C  81  1  0.40080700  0.26705500  0.13283000  1
  C  82  1  0.39774200  0.24280500  0.14993900  1
  C  83  1  0.38763000  0.21713800  0.13846500  1
  C  84  1  0.38064800  0.21577400  0.10947900  1
  C  85  1  0.38374800  0.23978300  0.09185700  1
  C  86  1  0.39364200  0.26558300  0.10371900  1
  C  89  1  0.41520500  0.29093000  0.14390700  1
  C  90  1  0.40061000  0.31622800  0.15056300  1
  C  91  1  0.41598900  0.34080900  0.15844200  1
  C  92  1  0.44584900  0.33985000  0.15957900  1
  C  93  1  0.46061300  0.31464700  0.15321400  1
  C  94  1  0.44505200  0.29031800  0.14544400  1
  C  101  1  0.40037500  0.78787500  0.92020400  1
  C  102  1  0.39713000  0.81212100  0.90311400  1
  C  103  1  0.38709600  0.83777100  0.91470000  1
  C  104  1  0.38038700  0.83913900  0.94374700  1
  C  105  1  0.38356400  0.81509000  0.96129200  1
  C  106  1  0.39338400  0.78930300  0.94935900  1
  C  109  1  0.41487300  0.76409700  0.90904600  1
  C  110  1  0.40039400  0.73871800  0.90243400  1
  C  111  1  0.41589100  0.71421800  0.89453900  1
  C  112  1  0.44574100  0.71533900  0.89332400  1
  C  113  1  0.46038900  0.74062000  0.89965800  1
  C  114  1  0.44471300  0.76486400  0.90745300  1
  C  121  1  0.65399900  0.78748100  0.13247300  1
  C  122  1  0.65699100  0.81163400  0.14973200  1
  C  123  1  0.66708800  0.83738800  0.13844000  1
  C  124  1  0.67414900  0.83893200  0.10948100  1
  C  125  1  0.67111600  0.81502700  0.09170600  1
  C  126  1  0.66122800  0.78914200  0.10338800  1
  C  129  1  0.63958500  0.76353400  0.14337000  1
  C  130  1  0.65417000  0.73820400  0.14993000  1
  C  131  1  0.63878500  0.71360400  0.15772700  1
  C  132  1  0.60892700  0.71457800  0.15889500  1
  C  133  1  0.59416600  0.73981300  0.15263900  1
  C  134  1  0.60973800  0.76415200  0.14492500  1
  C  141  1  0.65403700  0.26698100  0.92040100  1
  C  142  1  0.65720300  0.24277500  0.90324100  1
  C  143  1  0.66729400  0.21709500  0.91471300  1
  C  144  1  0.67418700  0.21567600  0.94371300  1
  C  145  1  0.67106300  0.23967200  0.96134300  1
  C  146  1  0.66115600  0.26548100  0.94952000  1
  C  149  1  0.63955100  0.29080700  0.90933400  1
  C  150  1  0.65406600  0.31615400  0.90268000  1
  C  151  1  0.63860900  0.34067100  0.89475300  1
  C  152  1  0.60875700  0.33958900  0.89353800  1
  C  153  1  0.59407100  0.31433700  0.89990300  1
  C  154  1  0.60971000  0.29008100  0.90774300  1
  C  161  1  0.13369700  0.40062700  0.26611000  1
  C  162  1  0.15074100  0.39745800  0.24182600  1
  C  163  1  0.13916700  0.38735900  0.21619900  1
  C  164  1  0.11014500  0.38051900  0.21489900  1
  C  165  1  0.09259800  0.38369900  0.23895000  1
  C  166  1  0.10455700  0.39356600  0.26471500  1
  C  169  1  0.14486000  0.41506100  0.28992200  1
  C  170  1  0.15147900  0.40053100  0.31526700  1
  C  171  1  0.15938600  0.41596900  0.33980100  1
  C  172  1  0.16058400  0.44582300  0.33875100  1
  C  173  1  0.15425700  0.46052700  0.31350100  1
  C  174  1  0.14646300  0.44490400  0.28921900  1
  C  181  1  0.92106200  0.40054800  0.78696000  1
  C  182  1  0.90388100  0.39741400  0.81115600  1
  C  183  1  0.91534000  0.38738600  0.83686500  1
  C  184  1  0.94435000  0.38054400  0.83833200  1
  C  185  1  0.96199700  0.38363400  0.81434500  1
  C  186  1  0.95018900  0.39346600  0.78850200  1
  C  189  1  0.91001600  0.41499500  0.76310000  1
  C  190  1  0.90339100  0.40044200  0.73776800  1
  C  191  1  0.89554300  0.41587000  0.71320600  1
  C  192  1  0.89438200  0.44572600  0.71422500  1
  C  193  1  0.90072900  0.46044800  0.73946000  1
  C  194  1  0.90848200  0.44484100  0.76376300  1
  C  201  1  0.13330800  0.65383500  0.78691400  1
  C  202  1  0.15053300  0.65684500  0.81108800  1
  C  203  1  0.13920100  0.66694800  0.83682000  1
  C  204  1  0.11023700  0.67400300  0.83832000  1
  C  205  1  0.09249900  0.67096200  0.81438900  1
  C  206  1  0.10422100  0.66106100  0.78852800  1
  C  209  1  0.14424900  0.63943500  0.76297900  1
  C  210  1  0.15086300  0.65403700  0.73767200  1
  C  211  1  0.15868400  0.63866600  0.71307100  1
  C  212  1  0.15982300  0.60880600  0.71402100  1
  C  213  1  0.15351200  0.59402600  0.73923500  1
  C  214  1  0.14577700  0.60958500  0.76357400  1
  C  221  1  0.92125200  0.65419500  0.26641900  1
  C  222  1  0.90408200  0.65734700  0.24222000  1
  C  223  1  0.91553700  0.66744600  0.21653600  1
  C  224  1  0.94453300  0.67436100  0.21510900  1
  C  225  1  0.96217300  0.67124300  0.23909400  1
  C  226  1  0.95036700  0.66133000  0.26490900  1
  C  229  1  0.91020600  0.63968300  0.29024400  1
  C  230  1  0.90358400  0.65417000  0.31561200  1
  C  231  1  0.89566400  0.63868700  0.34011700  1
  C  232  1  0.89442300  0.60884000  0.33900000  1
  C  233  1  0.90075700  0.59418300  0.31372300  1
  C  234  1  0.90859200  0.60984400  0.28948100  1
  C  241  1  0.13357900  0.26677100  0.65303700  1
  C  242  1  0.15069900  0.24252900  0.65611200  1
  C  243  1  0.13922500  0.21684500  0.66617500  1
  C  244  1  0.11022700  0.21545000  0.67310000  1
  C  245  1  0.09259600  0.23945400  0.67000000  1
  C  246  1  0.10445800  0.26527200  0.66015300  1
  C  249  1  0.14466100  0.29066500  0.63867900  1
  C  250  1  0.15128200  0.31595700  0.65330200  1
  C  251  1  0.15916300  0.34055700  0.63795700  1
  C  252  1  0.16035500  0.33961500  0.60809900  1
  C  253  1  0.15403300  0.31441800  0.59329800  1
  C  254  1  0.14624200  0.29008100  0.60883200  1
  C  261  1  0.92130100  0.78764200  0.65340600  1
  C  262  1  0.90407700  0.81180600  0.65656100  1
  C  263  1  0.91548100  0.83751700  0.66666667  1
  C  264  1  0.94448200  0.83901200  0.67354300  1
  C  265  1  0.96216900  0.81505900  0.67043200  1
  C  266  1  0.95041300  0.78921600  0.66053400  1
  C  269  1  0.91030600  0.76379000  0.63890300  1
  C  270  1  0.90372800  0.73841600  0.65340100  1
  C  271  1  0.89588200  0.71388400  0.63792500  1
  C  272  1  0.89467300  0.71497900  0.60807300  1
  C  273  1  0.90096400  0.74026000  0.59340800  1
  C  274  1  0.90872400  0.76452900  0.60906200  1
  C  281  1  0.13337500  0.78766800  0.39984500  1
  C  282  1  0.15054400  0.81188000  0.39681200  1
  C  283  1  0.13914500  0.83758100  0.38670200  1
  C  284  1  0.11017100  0.83901600  0.37968000  1
  C  285  1  0.09249200  0.81504400  0.38273600  1
  C  286  1  0.10428000  0.78921200  0.39263600  1
  C  289  1  0.14436200  0.76378600  0.41430100  1
  C  290  1  0.15094400  0.73843000  0.39977100  1
  C  291  1  0.15877500  0.71387700  0.41521300  1
  C  292  1  0.15994100  0.71491100  0.44506700  1
  C  293  1  0.15365600  0.74017300  0.45976800  1
  C  294  1  0.14592900  0.76447400  0.44414600  1
  C  301  1  0.92097700  0.26722400  0.39975400  1
  C  302  1  0.90385900  0.24299100  0.39656500  1
  C  303  1  0.91539000  0.21733000  0.38649300  1
  C  304  1  0.94440800  0.21595400  0.37966100  1
  C  305  1  0.96199300  0.23997700  0.38281200  1
  C  306  1  0.95011100  0.26577100  0.39268500  1
  C  309  1  0.90985500  0.29103200  0.41422900  1
  C  310  1  0.90315000  0.31635800  0.39970100  1
  C  311  1  0.89521300  0.34087500  0.41515400  1
  C  312  1  0.89405200  0.33982200  0.44500800  1
  C  313  1  0.90047900  0.31459100  0.45970500  1
  C  314  1  0.90831500  0.29033100  0.44407400  1
  C  321  1  0.26705500  0.40080700  0.92028000  1
  C  322  1  0.24280500  0.39774200  0.90317300  1
  C  323  1  0.21713800  0.38763000  0.91464700  1
  C  324  1  0.21577400  0.38064800  0.94363200  1
  C  325  1  0.23978300  0.38374800  0.96125400  1
  C  326  1  0.26558300  0.39364200  0.94939300  1
  C  329  1  0.29093000  0.41520500  0.90920400  1
  C  330  1  0.31622800  0.40061000  0.90254800  1
  C  331  1  0.34080900  0.41598900  0.89466800  1
  C  332  1  0.33985000  0.44584900  0.89353100  1
  C  333  1  0.31464700  0.46061300  0.89989700  1
  C  334  1  0.29031800  0.44505200  0.90766700  1
  C  341  1  0.78787500  0.40037500  0.13290800  1
  C  342  1  0.81212100  0.39713000  0.14999700  1
  C  343  1  0.83777100  0.38709600  0.13841000  1
  C  344  1  0.83913900  0.38038700  0.10936400  1
  C  345  1  0.81509000  0.38356400  0.09182000  1
  C  346  1  0.78930300  0.39338400  0.10375300  1
  C  349  1  0.76409700  0.41487300  0.14406500  1
  C  350  1  0.73871800  0.40039400  0.15067800  1
  C  351  1  0.71421800  0.41589100  0.15857300  1
  C  352  1  0.71533900  0.44574100  0.15978900  1
  C  353  1  0.74062000  0.46038900  0.15345400  1
  C  354  1  0.76486400  0.44471300  0.14565900  1
  C  361  1  0.78748100  0.65399900  0.92063800  1
  C  362  1  0.81163400  0.65699100  0.90337900  1
  C  363  1  0.83738800  0.66708800  0.91467000  1
  C  364  1  0.83893200  0.67414900  0.94363000  1
  C  365  1  0.81502700  0.67111600  0.96140500  1
  C  366  1  0.78914200  0.66122800  0.94972300  1
  C  369  1  0.76353400  0.63958500  0.90974200  1
  C  370  1  0.73820400  0.65417000  0.90318200  1
  C  371  1  0.71360400  0.63878500  0.89538400  1
  C  372  1  0.71457800  0.60892700  0.89421500  1
  C  373  1  0.73981300  0.59416600  0.90047300  1
  C  374  1  0.76415200  0.60973800  0.90818600  1
  C  381  1  0.26698100  0.65403700  0.13271000  1
  C  382  1  0.24277500  0.65720300  0.14987100  1
  C  383  1  0.21709500  0.66729400  0.13839900  1
  C  384  1  0.21567600  0.67418700  0.10939700  1
  C  385  1  0.23967200  0.67106300  0.09176800  1
  C  386  1  0.26548100  0.66115600  0.10359100  1
  C  389  1  0.29080700  0.63955100  0.14377800  1
  C  390  1  0.31615400  0.65406600  0.15043100  1
  C  391  1  0.34067100  0.63860900  0.15835800  1
  C  392  1  0.33958900  0.60875700  0.15957400  1
  C  393  1  0.31433700  0.59407100  0.15320700  1
  C  394  1  0.29008100  0.60971000  0.14536800  1
  C  401  1  0.40062700  0.13369700  0.78700100  1
  C  402  1  0.39745800  0.15074100  0.81128500  1
  C  403  1  0.38735900  0.13916700  0.83691100  1
  C  404  1  0.38051900  0.11014500  0.83821200  1
  C  405  1  0.38369900  0.09259800  0.81416100  1
  C  406  1  0.39356600  0.10455700  0.78839600  1
  C  409  1  0.41506100  0.14486000  0.76318900  1
  C  410  1  0.40053100  0.15147900  0.73784400  1
  C  411  1  0.41596900  0.15938600  0.71331200  1
  C  412  1  0.44582300  0.16058400  0.71436000  1
  C  413  1  0.46052700  0.15425700  0.73961200  1
  C  414  1  0.44490400  0.14646300  0.76389200  1
  C  421  1  0.40054800  0.92106200  0.26615000  1
  C  422  1  0.39741400  0.90388100  0.24195500  1
  C  423  1  0.38738600  0.91534000  0.21624600  1
  C  424  1  0.38054400  0.94435000  0.21478100  1
  C  425  1  0.38363400  0.96199700  0.23876600  1
  C  426  1  0.39346600  0.95018900  0.26460900  1
  C  429  1  0.41499500  0.91001600  0.29001100  1
  C  430  1  0.40044200  0.90339100  0.31534300  1
  C  431  1  0.41587000  0.89554300  0.33990500  1
  C  432  1  0.44572600  0.89438200  0.33888800  1
  C  433  1  0.46044800  0.90072900  0.31365100  1
  C  434  1  0.44484100  0.90848200  0.28934800  1
  C  441  1  0.65383500  0.13330800  0.26619700  1
  C  442  1  0.65684500  0.15053300  0.24202300  1
  C  443  1  0.66694800  0.13920100  0.21629000  1
  C  444  1  0.67400300  0.11023700  0.21479100  1
  C  445  1  0.67096200  0.09249900  0.23872200  1
  C  446  1  0.66106100  0.10422100  0.26458500  1
  C  449  1  0.63943500  0.14424900  0.29013200  1
  C  450  1  0.65403700  0.15086300  0.31543900  1
  C  451  1  0.63866600  0.15868400  0.34004000  1
  C  452  1  0.60880600  0.15982300  0.33908900  1
  C  453  1  0.59402900  0.15351200  0.31387800  1
  C  454  1  0.60958500  0.14577700  0.28953700  1
  C  461  1  0.65419500  0.92125200  0.78669100  1
  C  462  1  0.65734700  0.90408200  0.81089300  1
  C  463  1  0.66744600  0.91553700  0.83657700  1
  C  464  1  0.67436100  0.94453300  0.83800400  1
  C  465  1  0.67124300  0.96217300  0.81401700  1
  C  466  1  0.66133000  0.95036700  0.78820100  1
  C  469  1  0.63968300  0.91020600  0.76286700  1
  C  470  1  0.65417000  0.90358400  0.73749900  1
  C  471  1  0.63868700  0.89566400  0.71299400  1
  C  472  1  0.60884000  0.89442300  0.71411000  1
  C  473  1  0.59418300  0.90075700  0.73938800  1
  C  474  1  0.60984400  0.90859200  0.76362900  1
  C  481  1  0.78893000  0.93496700  0.63756300  1
  C  482  1  0.81204100  0.91668400  0.64210300  1
  C  483  1  0.83702800  0.92647700  0.65525000  1
  C  484  1  0.83863300  0.95492800  0.66420800  1
  C  485  1  0.81558200  0.97354500  0.65994900  1
  C  486  1  0.79053300  0.96343100  0.64679800  1
  C  489  1  0.76457800  0.92424900  0.62382700  1
  C  490  1  0.74057800  0.91601500  0.63968300  1
  C  491  1  0.71642900  0.90503000  0.62567000  1
  C  492  1  0.71640200  0.90245100  0.59590500  1
  C  493  1  0.74039100  0.91038600  0.57983300  1
  C  494  1  0.76448700  0.92094700  0.59413700  1
  C  501  1  0.26596200  0.11968600  0.63752000  1
  C  502  1  0.24276600  0.13787700  0.64200800  1
  C  503  1  0.21776700  0.12797100  0.65504300  1
  C  504  1  0.21622900  0.09949900  0.66394300  1
  C  505  1  0.23937200  0.08097600  0.65975000  1
  C  506  1  0.26443300  0.09120200  0.64670700  1
  C  509  1  0.29030700  0.13050900  0.62385700  1
  C  510  1  0.31424400  0.13880900  0.63976900  1
  C  511  1  0.33838200  0.14990200  0.62582000  1
  C  512  1  0.33846700  0.15249800  0.59605500  1
  C  513  1  0.31454500  0.14447900  0.57992400  1
  C  514  1  0.29045100  0.13383100  0.59416800  1
  C  521  1  0.26570100  0.93498600  0.41577500  1
  C  522  1  0.24257200  0.91672700  0.41123600  1
  C  523  1  0.21755900  0.92656100  0.39817200  1
  C  524  1  0.21595000  0.95503400  0.38928000  1
  C  525  1  0.23901800  0.97363200  0.39353600  1
  C  526  1  0.26409200  0.96347400  0.40661100  1
  C  529  1  0.29008500  0.92421500  0.42941100  1
  C  530  1  0.31403000  0.91599400  0.41346400  1
  C  531  1  0.33820200  0.90493500  0.42737800  1
  C  532  1  0.33831400  0.90228400  0.45713600  1
  C  533  1  0.31438400  0.91020800  0.47329700  1
  C  534  1  0.29025900  0.92083500  0.45909300  1
  C  541  1  0.78910400  0.11970700  0.41559500  1
  C  542  1  0.81222100  0.13798200  0.41105200  1
  C  543  1  0.83721000  0.12817500  0.39792200  1
  C  544  1  0.83882600  0.09971200  0.38900200  1
  C  545  1  0.81576400  0.08110900  0.39325000  1
  C  546  1  0.79070500  0.09123700  0.40637800  1
  C  549  1  0.76473100  0.13044500  0.42927300  1
  C  550  1  0.74075100  0.13864500  0.41336700  1
  C  551  1  0.71656300  0.14960600  0.42732500  1
  C  552  1  0.71647200  0.15218800  0.45709000  1
  C  553  1  0.74043400  0.14427700  0.47321400  1
  C  554  1  0.76457400  0.13374600  0.45896400  1
  C  561  1  0.63814700  0.78924500  0.93424000  1
  C  562  1  0.64268600  0.81235200  0.91595200  1
  C  563  1  0.65586000  0.83733100  0.92572500  1
  C  564  1  0.66485600  0.83893400  0.95416400  1
  C  565  1  0.66060400  0.81588700  0.97278900  1
  C  566  1  0.64741900  0.79084600  0.96269200  1
  C  569  1  0.62443500  0.76487900  0.92352700  1
  C  570  1  0.64030700  0.74084700  0.91541800  1
  C  571  1  0.62632400  0.71668300  0.90443100  1
  C  572  1  0.59657200  0.71667300  0.90171400  1
  C  573  1  0.58048600  0.74069400  0.90952200  1
  C  574  1  0.59475900  0.76480300  0.92009200  1
  C  581  1  0.63827900  0.26594300  0.11889100  1
  C  582  1  0.64273400  0.24281100  0.13717000  1
  C  583  1  0.65575400  0.21776000  0.12737200  1
  C  584  1  0.66469300  0.21612300  0.09891400  1
  C  585  1  0.66054200  0.23920200  0.08030400  1
  C  586  1  0.64750100  0.26430600  0.09042500  1
  C  589  1  0.62463000  0.29033900  0.12961900  1
  C  590  1  0.64056600  0.31427200  0.13788800  1
  C  591  1  0.62663700  0.33843900  0.14894300  1
  C  592  1  0.59687500  0.33855800  0.15153700  1
  C  593  1  0.58072100  0.31464000  0.14355000  1
  C  594  1  0.59494100  0.29051900  0.13293500  1
  C  601  1  0.41626800  0.26568500  0.93411800  1
  C  602  1  0.41168300  0.24250200  0.91593500  1
  C  603  1  0.39855700  0.21756100  0.92586000  1
  C  604  1  0.38967800  0.21605500  0.95434000  1
  C  605  1  0.39399400  0.23917300  0.97286100  1
  C  606  1  0.40711300  0.26418700  0.96261400  1
  C  609  1  0.42997400  0.28999800  0.92327300  1
  C  610  1  0.41409700  0.31397300  0.91500300  1
  C  611  1  0.42808300  0.33810000  0.90393800  1
  C  612  1  0.45784800  0.33813900  0.90133300  1
  C  613  1  0.47393800  0.31417400  0.90930400  1
  C  614  1  0.45966000  0.29009400  0.91993300  1
  C  621  1  0.41644200  0.78875000  0.11892200  1
  C  622  1  0.41189500  0.81188800  0.13717200  1
  C  623  1  0.39883500  0.83689200  0.12731300  1
  C  624  1  0.38999500  0.83850800  0.09882600  1
  C  625  1  0.39425200  0.81542300  0.08025100  1
  C  626  1  0.40730400  0.79034900  0.09042700  1
  C  629  1  0.43009500  0.76437900  0.12969800  1
  C  630  1  0.41416300  0.74045500  0.13800400  1
  C  631  1  0.42810400  0.71626800  0.14899900  1
  C  632  1  0.45787700  0.71612900  0.15149900  1
  C  633  1  0.47402500  0.74003600  0.14347800  1
  C  634  1  0.45979200  0.76417600  0.13292200  1
  C  641  1  0.93508700  0.63816000  0.78813800  1
  C  642  1  0.91674400  0.64263100  0.81121300  1
  C  643  1  0.92645600  0.65570100  0.83626800  1
  C  644  1  0.95489500  0.66469700  0.83796000  1
  C  645  1  0.97357500  0.66052300  0.81494200  1
  C  646  1  0.96353700  0.64741900  0.78983600  1
  C  649  1  0.92443900  0.62447700  0.76372500  1
  C  650  1  0.91626500  0.64038600  0.73973900  1
  C  651  1  0.90528900  0.62642800  0.71555500  1
  C  652  1  0.90265200  0.59666900  0.71547600  1
  C  653  1  0.91053200  0.58054700  0.73945100  1
  C  654  1  0.92108700  0.59479300  0.76358300  1
  C  661  1  0.11976300  0.63828900  0.26497300  1
  C  662  1  0.13799500  0.64281100  0.24181800  1
  C  663  1  0.12815000  0.65594300  0.21684300  1
  C  664  1  0.09969400  0.66489400  0.21528900  1
  C  665  1  0.08113100  0.66066700  0.23839100  1
  C  666  1  0.09129800  0.64753300  0.26342900  1
  C  669  1  0.13053700  0.62458300  0.28931800  1
  C  670  1  0.13868700  0.64045600  0.31333600  1
  C  671  1  0.14971200  0.62647400  0.33748400  1
  C  672  1  0.15240100  0.59672000  0.33750100  1
  C  673  1  0.14453600  0.58063200  0.31350100  1
  C  674  1  0.13394600  0.59490500  0.28940100  1
  C  681  1  0.93481000  0.41635100  0.26497900  1
  C  682  1  0.91664600  0.41170600  0.24179400  1
  C  683  1  0.92660800  0.39854700  0.21688300  1
  C  684  1  0.95510400  0.38972200  0.21539700  1
  C  685  1  0.97360500  0.39410800  0.23851800  1
  C  686  1  0.96332300  0.40723800  0.26351000  1
  C  689  1  0.92393100  0.43006100  0.28927400  1
  C  690  1  0.91562100  0.41418800  0.31323800  1
  C  691  1  0.90454100  0.42818200  0.33735300  1
  C  692  1  0.90196400  0.45794900  0.33739100  1
  C  693  1  0.90997500  0.47403600  0.31343700  1
  C  694  1  0.92061700  0.45974900  0.28936700  1
  C  701  1  0.11959200  0.41638200  0.78821200  1
  C  702  1  0.13785300  0.41189300  0.81135000  1
  C  703  1  0.12801900  0.39887100  0.83638400  1
  C  704  1  0.09954500  0.38998900  0.83801700  1
  C  705  1  0.08095500  0.39418000  0.81492900  1
  C  706  1  0.09110900  0.40721100  0.78983200  1
  C  709  1  0.13035100  0.43000400  0.76381600  1
  C  710  1  0.13866600  0.41403800  0.73991700  1
  C  711  1  0.14968100  0.42794500  0.71572000  1
  C  712  1  0.15219700  0.45771800  0.71554600  1
  C  713  1  0.14416900  0.47389800  0.73943000  1
  C  714  1  0.13359000  0.45969900  0.76357900  1
  C  721  1  0.93496700  0.78893000  0.41555000  1
  C  722  1  0.91668400  0.81204100  0.41100800  1
  C  723  1  0.92647700  0.83702600  0.39786100  1
  C  724  1  0.95492800  0.83863300  0.38890300  1
  C  725  1  0.97354500  0.81558400  0.39316100  1
  C  726  1  0.96343100  0.79053300  0.40631500  1
  C  729  1  0.92424900  0.76457800  0.42928400  1
  C  730  1  0.91601500  0.74057800  0.41342800  1
  C  731  1  0.90503000  0.71642900  0.42744100  1
  C  732  1  0.90245100  0.71640200  0.45720600  1
  C  733  1  0.91038600  0.74039100  0.47327700  1
  C  734  1  0.92094700  0.76448700  0.45897400  1
  C  741  1  0.11968600  0.26596200  0.41559000  1
  C  742  1  0.13787600  0.24276600  0.41110500  1
  C  743  1  0.12797100  0.21776700  0.39806800  1
  C  744  1  0.09949900  0.21622900  0.38916700  1
  C  745  1  0.08097600  0.23937200  0.39336100  1
  C  746  1  0.09120200  0.26443300  0.40640400  1
  C  749  1  0.13050800  0.29030700  0.42925600  1
  C  750  1  0.13880900  0.31424400  0.41334100  1
  C  751  1  0.14990200  0.33838200  0.42729100  1
  C  752  1  0.15249700  0.33846700  0.45705600  1
  C  753  1  0.14447900  0.31454500  0.47318600  1
  C  754  1  0.13383100  0.29045100  0.45894300  1
  C  761  1  0.93498600  0.26570100  0.63733800  1
  C  762  1  0.91672700  0.24257200  0.64187400  1
  C  763  1  0.92656100  0.21755900  0.65493900  1
  C  764  1  0.95503400  0.21595000  0.66383100  1
  C  765  1  0.97363200  0.23901800  0.65957500  1
  C  766  1  0.96347400  0.26409200  0.64650000  1
  C  769  1  0.92421500  0.29008500  0.62370000  1
  C  770  1  0.91599400  0.31403000  0.63964700  1
  C  771  1  0.90493500  0.33820200  0.62573300  1
  C  772  1  0.90228400  0.33831400  0.59597500  1
  C  773  1  0.91020800  0.31438400  0.57981400  1
  C  774  1  0.92083300  0.29025900  0.59402000  1
  C  781  1  0.11970700  0.78910400  0.63751600  1
  C  782  1  0.13798300  0.81222100  0.64205900  1
  C  783  1  0.12817500  0.83721000  0.65518900  1
  C  784  1  0.09971200  0.83882600  0.66411100  1
  C  785  1  0.08110900  0.81576400  0.65986000  1
  C  786  1  0.09123700  0.79070500  0.64673500  1
  C  789  1  0.13044600  0.76473100  0.62383800  1
  C  790  1  0.13864600  0.74075100  0.63974400  1
  C  791  1  0.14960600  0.71656300  0.62578600  1
  C  792  1  0.15218800  0.71647200  0.59602100  1
  C  793  1  0.14427800  0.74043400  0.57989900  1
  C  794  1  0.13374600  0.76457400  0.59414900  1
  C  801  1  0.78924500  0.63814700  0.11887100  1
  C  802  1  0.81235200  0.64268600  0.13716000  1
  C  803  1  0.83733100  0.65586000  0.12738700  1
  C  804  1  0.83893400  0.66485600  0.09894600  1
  C  805  1  0.81588700  0.66060400  0.08032200  1
  C  806  1  0.79084600  0.64741900  0.09041800  1
  C  809  1  0.76487900  0.62443500  0.12958500  1
  C  810  1  0.74084700  0.64030700  0.13769400  1
  C  811  1  0.71668300  0.62632400  0.14867900  1
  C  812  1  0.71667300  0.59657200  0.15139700  1
  C  813  1  0.74069400  0.58048600  0.14358900  1
  C  814  1  0.76480300  0.59475900  0.13301900  1
  C  821  1  0.26594300  0.63828100  0.93421900  1
  C  822  1  0.24281100  0.64273400  0.91594100  1
  C  823  1  0.21776000  0.65575400  0.92574000  1
  C  824  1  0.21612300  0.66469300  0.95419800  1
  C  825  1  0.23920200  0.66054200  0.97280600  1
  C  826  1  0.26430800  0.64750100  0.96268600  1
  C  829  1  0.29033900  0.62463000  0.92349300  1
  C  830  1  0.31427200  0.64056600  0.91522300  1
  C  831  1  0.33843900  0.62663700  0.90416900  1
  C  832  1  0.33855800  0.59687500  0.90157400  1
  C  833  1  0.31464000  0.58072100  0.90956000  1
  C  834  1  0.29051900  0.59494100  0.92017600  1
  C  841  1  0.26568500  0.41626800  0.11899500  1
  C  842  1  0.24250200  0.41168300  0.13717600  1
  C  843  1  0.21756100  0.39855700  0.12725100  1
  C  844  1  0.21605500  0.38967800  0.09877200  1
  C  845  1  0.23917300  0.39399400  0.08024900  1
  C  846  1  0.26418700  0.40711300  0.09049800  1
  C  849  1  0.28999800  0.42997400  0.12984000  1
  C  850  1  0.31397300  0.41409700  0.13810800  1
  C  851  1  0.33810000  0.42808300  0.14917400  1
  C  852  1  0.33813900  0.45784800  0.15177800  1
  C  853  1  0.31417400  0.47393800  0.14380800  1
  C  854  1  0.29009400  0.45966000  0.13317900  1
  C  861  1  0.78875000  0.41644200  0.93419000  1
  C  862  1  0.81188800  0.41189500  0.91593900  1
  C  863  1  0.83689200  0.39883500  0.92579700  1
  C  864  1  0.83850800  0.38999500  0.95428500  1
  C  865  1  0.81542300  0.39425200  0.97286100  1
  C  866  1  0.79034900  0.40730400  0.96268400  1
  C  869  1  0.76437900  0.43009500  0.92341200  1
  C  870  1  0.74045500  0.41416300  0.91510900  1
  C  871  1  0.71626800  0.42810400  0.90411300  1
  C  872  1  0.71612900  0.45787700  0.90161200  1
  C  873  1  0.74003600  0.47402500  0.90963400  1
  C  874  1  0.76417600  0.45979200  0.92018900  1
  C  881  1  0.63816000  0.93508700  0.26497300  1
  C  882  1  0.64263100  0.91674400  0.24189800  1
  C  883  1  0.65570100  0.92645600  0.21684300  1
  C  884  1  0.66469700  0.95489500  0.21515100  1
  C  885  1  0.66052300  0.97357500  0.23816900  1
  C  886  1  0.64741900  0.96353700  0.26327500  1
  C  889  1  0.62447700  0.92443900  0.28938600  1
  C  890  1  0.64038400  0.91626500  0.31337200  1
  C  891  1  0.62642800  0.90528900  0.33755600  1
  C  892  1  0.59666900  0.90265200  0.33763500  1
  C  893  1  0.58054700  0.91053200  0.31366200  1
  C  894  1  0.59479300  0.92108700  0.28953000  1
  C  901  1  0.63828900  0.11976300  0.78813800  1
  C  902  1  0.64281300  0.13799500  0.81129300  1
  C  903  1  0.65594300  0.12815000  0.83626800  1
  C  904  1  0.66489400  0.09969400  0.83782200  1
  C  905  1  0.66066700  0.08113100  0.81472000  1
  C  906  1  0.64753300  0.09129800  0.78968200  1
  C  909  1  0.62458300  0.13053700  0.76379200  1
  C  910  1  0.64045600  0.13868700  0.73977500  1
  C  911  1  0.62647400  0.14971200  0.71562700  1
  C  912  1  0.59672000  0.15240100  0.71561000  1
  C  913  1  0.58063200  0.14453600  0.73961200  1
  C  914  1  0.59490500  0.13394600  0.76371200  1
  C  921  1  0.41635100  0.93481000  0.78813200  1
  C  922  1  0.41170600  0.91664600  0.81131900  1
  C  923  1  0.39854700  0.92660800  0.83622700  1
  C  924  1  0.38972200  0.95510400  0.83771400  1
  C  925  1  0.39410800  0.97360500  0.81459500  1
  C  926  1  0.40723800  0.96332300  0.78960100  1
  C  929  1  0.43006100  0.92393100  0.76383700  1
  C  930  1  0.41418800  0.91562100  0.73987300  1
  C  931  1  0.42818200  0.90453900  0.71575800  1
  C  932  1  0.45794900  0.90196400  0.71572000  1
  C  933  1  0.47403600  0.90997500  0.73967400  1
  C  934  1  0.45974900  0.92061700  0.76374400  1
  C  941  1  0.41638200  0.11959200  0.26489900  1
  C  942  1  0.41189300  0.13785300  0.24176000  1
  C  943  1  0.39887100  0.12801900  0.21672700  1
  C  944  1  0.38998900  0.09954500  0.21509400  1
  C  945  1  0.39418000  0.08095500  0.23818200  1
  C  946  1  0.40721100  0.09110900  0.26327900  1
  C  949  1  0.43000400  0.13035100  0.28929500  1
  C  950  1  0.41403800  0.13866600  0.31319400  1
  C  951  1  0.42794500  0.14968100  0.33739100  1
  C  952  1  0.45771800  0.15219700  0.33756700  1
  C  953  1  0.47389800  0.14416900  0.31368100  1
  C  954  1  0.45969900  0.13359000  0.28953400  1
  C  961  1  0.15658600  0.18703400  0.36773600  1
  C  962  1  0.17928300  0.16788600  0.36454000  1
  C  963  1  0.19188100  0.15559000  0.38877800  1
  C  964  1  0.18101700  0.16204800  0.41587800  1
  C  965  1  0.15886500  0.18169600  0.41913800  1
  C  966  1  0.14670200  0.19459900  0.39495700  1
  C  973  1  0.89775600  0.86757000  0.36744800  1
  C  974  1  0.87505200  0.88669700  0.36417800  1
  C  975  1  0.86242800  0.89904400  0.38837800  1
  C  976  1  0.87329800  0.89269700  0.41550100  1
  C  977  1  0.89546500  0.87307400  0.41882600  1
  C  978  1  0.90766300  0.86011800  0.39469500  1
  C  985  1  0.89796400  0.18690000  0.68538300  1
  C  986  1  0.87524900  0.16778800  0.68866600  1
  C  987  1  0.86253000  0.15552400  0.66447500  1
  C  988  1  0.87329800  0.16197500  0.63733200  1
  C  989  1  0.89547100  0.18158600  0.63399200  1
  C  990  1  0.90775800  0.19446000  0.65812600  1
  C  997  1  0.15701100  0.86759300  0.68564000  1
  C  998  1  0.17977700  0.88664600  0.68890900  1
  C  999  1  0.19234800  0.89906100  0.66471800  1
  C  1000  1  0.18137400  0.89285600  0.63760300  1
  C  1001  1  0.15914900  0.87330300  0.63427000  1
  C  1002  1  0.14700000  0.86028500  0.65839500  1
  C  1009  1  0.36850000  0.15672900  0.18612200  1
  C  1010  1  0.36527700  0.17949200  0.16705600  1
  C  1011  1  0.38950000  0.19215000  0.15479100  1
  C  1012  1  0.41661300  0.18127900  0.16119300  1
  C  1013  1  0.41989800  0.15905800  0.18075800  1
  C  1014  1  0.39573200  0.14683100  0.19362900  1
  C  1021  1  0.36804300  0.89772000  0.86648600  1
  C  1022  1  0.36477500  0.87503100  0.88562800  1
  C  1023  1  0.38894500  0.86275000  0.89837000  1
  C  1024  1  0.41603100  0.87390200  0.89236000  1
  C  1025  1  0.41937100  0.89603400  0.87270300  1
  C  1026  1  0.39527500  0.90791900  0.85939300  1
  C  1033  1  0.68607200  0.89790900  0.18604300  1
  C  1034  1  0.68933900  0.87517900  0.16694500  1
  C  1035  1  0.66512900  0.86228400  0.15490300  1
  C  1036  1  0.63797800  0.87291500  0.16154200  1
  C  1037  1  0.63465900  0.89511100  0.18112700  1
  C  1038  1  0.65881800  0.90756500  0.19379800  1
  C  1045  1  0.68634700  0.15683400  0.86685000  1
  C  1046  1  0.68960200  0.17953800  0.88598100  1
  C  1047  1  0.66539600  0.19214700  0.89832600  1
  C  1048  1  0.63827600  0.18125700  0.89198300  1
  C  1049  1  0.63496200  0.15909500  0.87235800  1
  C  1050  1  0.65910400  0.14692200  0.85939300  1
  C  1057  1  0.18712500  0.36814000  0.15608400  1
  C  1058  1  0.16801300  0.36493600  0.17880900  1
  C  1059  1  0.15544900  0.38915100  0.19118400  1
  C  1060  1  0.16163000  0.41622800  0.18010000  1
  C  1061  1  0.18125300  0.41950000  0.15792800  1
  C  1062  1  0.19440100  0.39535100  0.14596500  1
  C  1069  1  0.86739800  0.36839200  0.89707800  1
  C  1070  1  0.88652600  0.36511600  0.87437600  1
  C  1071  1  0.89892900  0.38930700  0.86179300  1
  C  1072  1  0.89262700  0.41643100  0.87269100  1
  C  1073  1  0.87300000  0.41976900  0.89484800  1
  C  1074  1  0.85999900  0.39564100  0.90701100  1
  C  1081  1  0.18688600  0.68606300  0.89722700  1
  C  1082  1  0.16773800  0.68928200  0.87453300  1
  C  1083  1  0.15565100  0.66504500  0.86172900  1
  C  1084  1  0.16230300  0.63791600  0.87240900  1
  C  1085  1  0.18194100  0.63464200  0.89456500  1
  C  1086  1  0.19465000  0.65882900  0.90692400  1
  C  1093  1  0.86779200  0.68633800  0.15612300  1
  C  1094  1  0.88684800  0.68965500  0.17888000  1
  C  1095  1  0.89917100  0.66548500  0.19157900  1
  C  1096  1  0.89288500  0.63834000  0.18072200  1
  C  1097  1  0.87333400  0.63496600  0.15850200  1
  C  1098  1  0.86039300  0.65907300  0.14623100  1
  C  1105  1  0.18703400  0.15658600  0.68537500  1
  C  1106  1  0.16788600  0.17928300  0.68857100  1
  C  1107  1  0.15559000  0.19188100  0.66433300  1
  C  1108  1  0.16204800  0.18101600  0.63723200  1
  C  1109  1  0.18169600  0.15886500  0.63397300  1
  C  1110  1  0.19459900  0.14670200  0.65815600  1
  C  1117  1  0.86757000  0.89775600  0.68566300  1
  C  1118  1  0.88669700  0.87505200  0.68893300  1
  C  1119  1  0.89904400  0.86242800  0.66473300  1
  C  1120  1  0.89269700  0.87330000  0.63760900  1
  C  1121  1  0.87307400  0.89546500  0.63428500  1
  C  1122  1  0.86011800  0.90766300  0.65841800  1
  C  1129  1  0.18690000  0.89796600  0.36773000  1
  C  1130  1  0.16778700  0.87524900  0.36444700  1
  C  1131  1  0.15552400  0.86253000  0.38863800  1
  C  1132  1  0.16197500  0.87329800  0.41577900  1
  C  1133  1  0.18158600  0.89547100  0.41912100  1
  C  1134  1  0.19446000  0.90775800  0.39498500  1
  C  1141  1  0.86759300  0.15701100  0.36747300  1
  C  1142  1  0.88664600  0.17977700  0.36420400  1
  C  1143  1  0.89906100  0.19234800  0.38839200  1
  C  1144  1  0.89285600  0.18137400  0.41550800  1
  C  1145  1  0.87330300  0.15915000  0.41884100  1
  C  1146  1  0.86028500  0.14700000  0.39471800  1
  C  1153  1  0.15672900  0.36850000  0.86699000  1
  C  1154  1  0.17949200  0.36527700  0.88605600  1
  C  1155  1  0.19215000  0.38950000  0.89832100  1
  C  1156  1  0.18127900  0.41661300  0.89191700  1
  C  1157  1  0.15905800  0.41989800  0.87235400  1
  C  1158  1  0.14683100  0.39573200  0.85948200  1
  C  1165  1  0.89772000  0.36804300  0.18662600  1
  C  1166  1  0.87503100  0.36477500  0.16748200  1
  C  1167  1  0.86275000  0.38894500  0.15474200  1
  C  1168  1  0.87390200  0.41603100  0.16075200  1
  C  1169  1  0.89603400  0.41937100  0.18040700  1
  C  1170  1  0.90791900  0.39527500  0.19371900  1
  C  1177  1  0.89790900  0.68607200  0.86706800  1
  C  1178  1  0.87517900  0.68933900  0.88616600  1
  C  1179  1  0.86228400  0.66512900  0.89820900  1
  C  1180  1  0.87291500  0.63797800  0.89157000  1
  C  1181  1  0.89511100  0.63465900  0.87198300  1
  C  1182  1  0.90756500  0.65881800  0.85931300  1
  C  1189  1  0.15683400  0.68634700  0.18626100  1
  C  1190  1  0.17953800  0.68960200  0.16713100  1
  C  1191  1  0.19214700  0.66539600  0.15478500  1
  C  1192  1  0.18125700  0.63827600  0.16112700  1
  C  1193  1  0.15909500  0.63496200  0.18075300  1
  C  1194  1  0.14692200  0.65910400  0.19371700  1
  C  1201  1  0.36814000  0.18712500  0.89702800  1
  C  1202  1  0.36493600  0.16801200  0.87430200  1
  C  1203  1  0.38915100  0.15544900  0.86192800  1
  C  1204  1  0.41622800  0.16163000  0.87301200  1
  C  1205  1  0.41950000  0.18125300  0.89518300  1
  C  1206  1  0.39535100  0.19440100  0.90714600  1
  C  1213  1  0.36839200  0.86739800  0.15603300  1
  C  1214  1  0.36511600  0.88652600  0.17873500  1
  C  1215  1  0.38930700  0.89892900  0.19131800  1
  C  1216  1  0.41643100  0.89262700  0.18042100  1
  C  1217  1  0.41976900  0.87300000  0.15826200  1
  C  1218  1  0.39564100  0.85999900  0.14610100  1
  C  1225  1  0.68606300  0.18688600  0.15588400  1
  C  1226  1  0.68928200  0.16773800  0.17857800  1
  C  1227  1  0.66504500  0.15565100  0.19138200  1
  C  1228  1  0.63791600  0.16230300  0.18070300  1
  C  1229  1  0.63464200  0.18194100  0.15854600  1
  C  1230  1  0.65882900  0.19465000  0.14618800  1
  C  1237  1  0.68633800  0.86779200  0.89698900  1
  C  1238  1  0.68965500  0.88684800  0.87423000  1
  C  1239  1  0.66548500  0.89917100  0.86153200  1
  C  1240  1  0.63834000  0.89288500  0.87239000  1
  C  1241  1  0.63496600  0.87333400  0.89460900  1
  C  1242  1  0.65907300  0.86039300  0.90687900  1
  C  1249  1  0.65994900  0.69235900  0.87386200  1
  C  1250  1  0.68229100  0.67281200  0.87124000  1
  C  1251  1  0.68728900  0.65294000  0.89313700  1
  C  1252  1  0.66845800  0.65159100  0.91635400  1
  C  1253  1  0.64625400  0.67129400  0.91908400  1
  C  1254  1  0.64228500  0.69221700  0.89800400  1
  C  1261  1  0.39438100  0.36225700  0.87337700  1
  C  1262  1  0.37205800  0.38181700  0.87067400  1
  C  1263  1  0.36712600  0.40182100  0.89247700  1
  C  1264  1  0.38607300  0.40336500  0.91558500  1
  C  1265  1  0.40825000  0.38364700  0.91838300  1
  C  1266  1  0.41213600  0.36256400  0.89745500  1
  C  1273  1  0.39440200  0.69218100  0.17966300  1
  C  1274  1  0.37202900  0.67268300  0.18237300  1
  C  1275  1  0.36702700  0.65270500  0.16057100  1
  C  1276  1  0.38588500  0.65117600  0.13738800  1
  C  1277  1  0.40812500  0.67082400  0.13457300  1
  C  1278  1  0.41208600  0.69186100  0.15553600  1
  C  1285  1  0.66031400  0.36242300  0.17966300  1
  C  1286  1  0.68272300  0.38187000  0.18245400  1
  C  1287  1  0.68782300  0.40185300  0.16067500  1
  C  1288  1  0.66899200  0.40348800  0.13747600  1
  C  1289  1  0.64673300  0.38387700  0.13458500  1
  C  1290  1  0.64266400  0.36282900  0.15551200  1
  C  1297  1  0.87458600  0.66004500  0.69138700  1
  C  1298  1  0.87186900  0.68243100  0.67190200  1
  C  1299  1  0.89371800  0.68751600  0.65199900  1
  C  1300  1  0.91696400  0.66873200  0.65053000  1
  C  1301  1  0.91978300  0.64648700  0.67017200  1
  C  1302  1  0.89876400  0.64243100  0.69114100  1
  C  1309  1  0.87393600  0.39450600  0.36149100  1
  C  1310  1  0.87120600  0.37217500  0.38103700  1
  C  1311  1  0.89299700  0.36722600  0.40104400  1
  C  1312  1  0.91612500  0.38614800  0.40261100  1
  C  1313  1  0.91894400  0.40833300  0.38290500  1
  C  1314  1  0.89802900  0.41224200  0.36181300  1
  C  1321  1  0.18034800  0.39419300  0.69170500  1
  C  1322  1  0.18308900  0.37183600  0.67218800  1
  C  1323  1  0.16134700  0.36687000  0.65213500  1
  C  1324  1  0.13817400  0.38574500  0.65058900  1
  C  1325  1  0.13532400  0.40796700  0.67025000  1
  C  1326  1  0.15624000  0.41189700  0.69134100  1
  C  1333  1  0.18023900  0.66013600  0.36172400  1
  C  1334  1  0.18287200  0.68251000  0.38123400  1
  C  1335  1  0.16097300  0.68752900  0.40110900  1
  C  1336  1  0.13781300  0.66863400  0.40257700  1
  C  1337  1  0.13507600  0.64641100  0.38290100  1
  C  1338  1  0.15612600  0.64243400  0.36196100  1
  C  1345  1  0.69220200  0.87432100  0.65924200  1
  C  1346  1  0.67267700  0.87160800  0.68159300  1
  C  1347  1  0.65275800  0.89345500  0.68662900  1
  C  1348  1  0.65130700  0.91668200  0.66782300  1
  C  1349  1  0.67098700  0.91949700  0.64561200  1
  C  1350  1  0.69198200  0.89849100  0.64161600  1
  C  1357  1  0.36226400  0.87434000  0.39364000  1
  C  1358  1  0.38176000  0.87160200  0.37126600  1
  C  1359  1  0.40174300  0.89340000  0.36625100  1
  C  1360  1  0.40332700  0.91655700  0.38513700  1
  C  1361  1  0.38366800  0.91938700  0.40736300  1
  C  1362  1  0.36261500  0.89845100  0.41135500  1
  C  1369  1  0.69232100  0.18016200  0.39364000  1
  C  1370  1  0.67277000  0.18279800  0.37130400  1
  C  1371  1  0.65283800  0.16094100  0.36634700  1
  C  1372  1  0.65144200  0.13775300  0.38521400  1
  C  1373  1  0.67114200  0.13500700  0.40741600  1
  C  1374  1  0.69211100  0.15604400  0.41133600  1
  C  1381  1  0.36239500  0.18055900  0.65953600  1
  C  1382  1  0.38187400  0.18330300  0.68192300  1
  C  1383  1  0.40188200  0.16152600  0.68694600  1
  C  1384  1  0.40351100  0.13839000  0.66803700  1
  C  1385  1  0.38387100  0.13554200  0.64579700  1
  C  1386  1  0.36279500  0.15645700  0.64181900  1
  C  1393  1  0.69236100  0.65994900  0.17924900  1
  C  1394  1  0.67281200  0.68229100  0.18187200  1
  C  1395  1  0.65294000  0.68728900  0.15997300  1
  C  1396  1  0.65159100  0.66845800  0.13675700  1
  C  1397  1  0.67129400  0.64625400  0.13402800  1
  C  1398  1  0.69221700  0.64228500  0.15510800  1
  C  1405  1  0.36225700  0.39438100  0.17973400  1
  C  1406  1  0.38181700  0.37205800  0.18243700  1
  C  1407  1  0.40182100  0.36712600  0.16063500  1
  C  1408  1  0.40336500  0.38607300  0.13752600  1
  C  1409  1  0.38364700  0.40825000  0.13472800  1
  C  1410  1  0.36256400  0.41213600  0.15565600  1
  C  1417  1  0.69218100  0.39440200  0.87344900  1
  C  1418  1  0.67268300  0.37202900  0.87073800  1
  C  1419  1  0.65270500  0.36702700  0.89254000  1
  C  1420  1  0.65117600  0.38588500  0.91572300  1
  C  1421  1  0.67082200  0.40812500  0.91853700  1
  C  1422  1  0.69186100  0.41208600  0.89757600  1
  C  1429  1  0.36242300  0.66031400  0.87344900  1
  C  1430  1  0.38187000  0.68272300  0.87065800  1
  C  1431  1  0.40185300  0.68782300  0.89243600  1
  C  1432  1  0.40348800  0.66899200  0.91563600  1
  C  1433  1  0.38387700  0.64673300  0.91852700  1
  C  1434  1  0.36282900  0.64266400  0.89759900  1
  C  1441  1  0.66004500  0.87458600  0.36172600  1
  C  1442  1  0.68243100  0.87186900  0.38120900  1
  C  1443  1  0.68751600  0.89372000  0.40111100  1
  C  1444  1  0.66873200  0.91696400  0.40258100  1
  C  1445  1  0.64648700  0.91978300  0.38293900  1
  C  1446  1  0.64243100  0.89876400  0.36196900  1
  C  1453  1  0.39450600  0.87393600  0.69162200  1
  C  1454  1  0.37217500  0.87120600  0.67207300  1
  C  1455  1  0.36722600  0.89299700  0.65206700  1
  C  1456  1  0.38614800  0.91612500  0.65050000  1
  C  1457  1  0.40833300  0.91894400  0.67020800  1
  C  1458  1  0.41224200  0.89802900  0.69129800  1
  C  1465  1  0.39419300  0.18034800  0.36140800  1
  C  1466  1  0.37183800  0.18308900  0.38092300  1
  C  1467  1  0.36687000  0.16134600  0.40097800  1
  C  1468  1  0.38574500  0.13817400  0.40252200  1
  C  1469  1  0.40796700  0.13532400  0.38286100  1
  C  1470  1  0.41189700  0.15623900  0.36177200  1
  C  1477  1  0.66013600  0.18023900  0.69138700  1
  C  1478  1  0.68251000  0.18287300  0.67187600  1
  C  1479  1  0.68752900  0.16097300  0.65200200  1
  C  1480  1  0.66863400  0.13781400  0.65053400  1
  C  1481  1  0.64641100  0.13507600  0.67021000  1
  C  1482  1  0.64243400  0.15612600  0.69115000  1
  C  1489  1  0.87432100  0.69220200  0.39387100  1
  C  1490  1  0.87160800  0.67267700  0.37151800  1
  C  1491  1  0.89345500  0.65275800  0.36648200  1
  C  1492  1  0.91668200  0.65130700  0.38528800  1
  C  1493  1  0.91949700  0.67098700  0.40749900  1
  C  1494  1  0.89849300  0.69198200  0.41149700  1
  C  1501  1  0.87434000  0.36226400  0.65947100  1
  C  1502  1  0.87160200  0.38176000  0.68184500  1
  C  1503  1  0.89340000  0.40174300  0.68685900  1
  C  1504  1  0.91655700  0.40332700  0.66797600  1
  C  1505  1  0.91938700  0.38366800  0.64574800  1
  C  1506  1  0.89845100  0.36261300  0.64175800  1
  C  1513  1  0.18016200  0.69232100  0.65947100  1
  C  1514  1  0.18279800  0.67277000  0.68180600  1
  C  1515  1  0.16094100  0.65283800  0.68676400  1
  C  1516  1  0.13775300  0.65144200  0.66789900  1
  C  1517  1  0.13500800  0.67114200  0.64569500  1
  C  1518  1  0.15604500  0.69211100  0.64177500  1
  C  1525  1  0.18055900  0.36239500  0.39357400  1
  C  1526  1  0.18330300  0.38187400  0.37118800  1
  C  1527  1  0.16152600  0.40188200  0.36616500  1
  C  1528  1  0.13839000  0.40351100  0.38507400  1
  C  1529  1  0.13554100  0.38387100  0.40731400  1
  C  1530  1  0.15645700  0.36279500  0.41129100  1
  C  1537  1  0.25169500  0.01597500  0.36619400  1
  C  1538  1  0.25175800  0.04565400  0.36304300  1
  C  1539  1  0.23607400  0.06275100  0.38207500  1
  C  1540  1  0.21951600  0.04954200  0.40323600  1
  C  1541  1  0.21944600  0.01992100  0.40638500  1
  C  1542  1  0.23579900  0.00290100  0.38791000  1
  C  1549  1  0.80308100  0.03883600  0.36581300  1
  C  1550  1  0.80295100  0.00916100  0.36263200  1
  C  1551  1  0.81854000  0.99200600  0.38169000  1
  C  1552  1  0.83511800  0.00515400  0.40287100  1
  C  1553  1  0.83523800  0.03477000  0.40605800  1
  C  1554  1  0.81897200  0.05185300  0.38756600  1
  C  1561  1  0.80292800  0.01586300  0.68734200  1
  C  1562  1  0.80283900  0.04554300  0.69049100  1
  C  1563  1  0.81848500  0.06265400  0.67144000  1
  C  1564  1  0.83503500  0.04946100  0.65026500  1
  C  1565  1  0.83513000  0.01984100  0.64711400  1
  C  1566  1  0.81881300  0.00280600  0.66560800  1
  C  1573  1  0.25216100  0.03865900  0.68708600  1
  C  1574  1  0.25227100  0.00898200  0.69026000  1
  C  1575  1  0.23661000  0.99184700  0.67124100  1
  C  1576  1  0.22001100  0.00501700  0.65009100  1
  C  1577  1  0.21990800  0.03463300  0.64691300  1
  C  1578  1  0.23622500  0.05169900  0.66537700  1
  C  1585  1  0.36677000  0.25201000  0.01523800  1
  C  1586  1  0.36366800  0.25212000  0.04492300  1
  C  1587  1  0.38268500  0.23640900  0.06201000  1
  C  1588  1  0.40378800  0.21979100  0.04878900  1
  C  1589  1  0.40689100  0.21967300  0.01916400  1
  C  1590  1  0.38842200  0.23604000  0.00215000  1
  C  1597  1  0.36677700  0.80292400  0.03794800  1
  C  1598  1  0.36356600  0.80289400  0.00827500  1
  C  1599  1  0.38270400  0.81841300  0.99114600  1
  C  1600  1  0.40404000  0.83477500  0.00431000  1
  C  1601  1  0.40726100  0.83479200  0.03392300  1
  C  1602  1  0.38864900  0.81863700  0.05098200  1
  C  1609  1  0.68806000  0.80315700  0.01503700  1
  C  1610  1  0.69122800  0.80297700  0.04471400  1
  C  1611  1  0.67219600  0.81858700  0.06188100  1
  C  1612  1  0.65104200  0.83520900  0.04874700  1
  C  1613  1  0.64787400  0.83539300  0.01912900  1
  C  1614  1  0.66633000  0.81909500  0.00203800  1
  C  1621  1  0.68790600  0.25190000  0.03798100  1
  C  1622  1  0.69107800  0.25197400  0.00830400  1
  C  1623  1  0.67207300  0.23626900  0.99119000  1
  C  1624  1  0.65096800  0.21963900  0.00438800  1
  C  1625  1  0.64779100  0.21957100  0.03400600  1
  C  1626  1  0.66621800  0.23595800  0.05104600  1
  C  1633  1  0.01597000  0.36682100  0.25124800  1
  C  1634  1  0.04565100  0.36367400  0.25130300  1
  C  1635  1  0.06274300  0.38274000  0.23565500  1
  C  1636  1  0.04953800  0.40396800  0.21918500  1
  C  1637  1  0.01991800  0.40711700  0.21912600  1
  C  1638  1  0.00289800  0.38857200  0.23539900  1
  C  1645  1  0.03865500  0.36675800  0.80230300  1
  C  1646  1  0.00897900  0.36358100  0.80220400  1
  C  1647  1  0.99184100  0.38266800  0.81777800  1
  C  1648  1  0.00500800  0.40388100  0.83430000  1
  C  1649  1  0.03462500  0.40706200  0.83439100  1
  C  1650  1  0.05169100  0.38853400  0.81814600  1
  C  1657  1  0.01587500  0.68795600  0.80232500  1
  C  1658  1  0.04555300  0.69110800  0.80222500  1
  C  1659  1  0.06266800  0.67207500  0.81789000  1
  C  1660  1  0.04947800  0.65094300  0.83449500  1
  C  1661  1  0.01985600  0.64779100  0.83460100  1
  C  1662  1  0.00281800  0.66624100  0.81823900  1
  C  1669  1  0.03884600  0.68803700  0.25119700  1
  C  1670  1  0.00917100  0.69122000  0.25133300  1
  C  1671  1  0.99201800  0.67222400  0.23566100  1
  C  1672  1  0.00517300  0.65110800  0.21900800  1
  C  1673  1  0.03478900  0.64792100  0.21887800  1
  C  1674  1  0.05186900  0.66634900  0.23522300  1
  C  1681  1  0.01597500  0.25169500  0.68691700  1
  C  1682  1  0.04565400  0.25175800  0.69006800  1
  C  1683  1  0.06275100  0.23607400  0.67103600  1
  C  1684  1  0.04954200  0.21951800  0.64987700  1
  C  1685  1  0.01992100  0.21944800  0.64672600  1
  C  1686  1  0.00290100  0.23579900  0.66520100  1
  C  1693  1  0.03883600  0.80308100  0.68729800  1
  C  1694  1  0.00916100  0.80295100  0.69048100  1
  C  1695  1  0.99200600  0.81854000  0.67142100  1
  C  1696  1  0.00515400  0.83511600  0.65024000  1
  C  1697  1  0.03477000  0.83523800  0.64705200  1
  C  1698  1  0.05185300  0.81897200  0.66554400  1
  C  1705  1  0.01586300  0.80292800  0.36577100  1
  C  1706  1  0.04554300  0.80283900  0.36262000  1
  C  1707  1  0.06265400  0.81848500  0.38167100  1
  C  1708  1  0.04946200  0.83503500  0.40284600  1
  C  1709  1  0.01984100  0.83513000  0.40599700  1
  C  1710  1  0.00280600  0.81881300  0.38750300  1
  C  1717  1  0.03865900  0.25216100  0.36602700  1
  C  1718  1  0.00898200  0.25227100  0.36285200  1
  C  1719  1  0.99184700  0.23661000  0.38187000  1
  C  1720  1  0.00501700  0.22000900  0.40302000  1
  C  1721  1  0.03463300  0.21990800  0.40619800  1
  C  1722  1  0.05169900  0.23622500  0.38773400  1
  C  1729  1  0.25201000  0.36677000  0.03787300  1
  C  1730  1  0.25212000  0.36366800  0.00818900  1
  C  1731  1  0.23640900  0.38268500  0.99110100  1
  C  1732  1  0.21979100  0.40378800  0.00432200  1
  C  1733  1  0.21967300  0.40689100  0.03394700  1
  C  1734  1  0.23604000  0.38842200  0.05096100  1
  C  1741  1  0.80292400  0.36677700  0.01516300  1
  C  1742  1  0.80289400  0.36356600  0.04483600  1
  C  1743  1  0.81841300  0.38270400  0.06196500  1
  C  1744  1  0.83477500  0.40404000  0.04880100  1
  C  1745  1  0.83479200  0.40726100  0.01918800  1
  C  1746  1  0.81863500  0.38864900  0.00213000  1
  C  1753  1  0.80315700  0.68806000  0.03807400  1
  C  1754  1  0.80297700  0.69122800  0.00839800  1
  C  1755  1  0.81858700  0.67219600  0.99123100  1
  C  1756  1  0.83520900  0.65104200  0.00436400  1
  C  1757  1  0.83539300  0.64787400  0.03398300  1
  C  1758  1  0.81909500  0.66633000  0.05107300  1
  C  1765  1  0.25190000  0.68790600  0.01513100  1
  C  1766  1  0.25197400  0.69107800  0.04480700  1
  C  1767  1  0.23626900  0.67207300  0.06192000  1
  C  1768  1  0.21963900  0.65096800  0.04872400  1
  C  1769  1  0.21957100  0.64779100  0.01910600  1
  C  1770  1  0.23595800  0.66621800  0.00206500  1
  C  1777  1  0.36682100  0.01597000  0.80186300  1
  C  1778  1  0.36367400  0.04565100  0.80180800  1
  C  1779  1  0.38274000  0.06274300  0.81745600  1
  C  1780  1  0.40396800  0.04953800  0.83392500  1
  C  1781  1  0.40711700  0.01991800  0.83398500  1
  C  1782  1  0.38857200  0.00289800  0.81771200  1
  C  1789  1  0.36675800  0.03865500  0.25080700  1
  C  1790  1  0.36358100  0.00897900  0.25090700  1
  C  1791  1  0.38266800  0.99184100  0.23533300  1
  C  1792  1  0.40388100  0.00500800  0.21881300  1
  C  1793  1  0.40706200  0.03462500  0.21872000  1
  C  1794  1  0.38853400  0.05169100  0.23496500  1
  C  1801  1  0.68795600  0.01587500  0.25078600  1
  C  1802  1  0.69110800  0.04555300  0.25088600  1
  C  1803  1  0.67207500  0.06266800  0.23522100  1
  C  1804  1  0.65094300  0.04947800  0.21861600  1
  C  1805  1  0.64778900  0.01985600  0.21851200  1
  C  1806  1  0.66624100  0.00281800  0.23487100  1
  C  1813  1  0.68803900  0.03884600  0.80191400  1
  C  1814  1  0.69122000  0.00917100  0.80178000  1
  C  1815  1  0.67222400  0.99201800  0.81744900  1
  C  1816  1  0.65110800  0.00517300  0.83410300  1
  C  1817  1  0.64792100  0.03478900  0.83423200  1
  C  1818  1  0.66634900  0.05186900  0.81788800  1
  C  1825  1  0.73375900  0.51719300  0.88127400  1
  C  1826  1  0.73344700  0.54693900  0.87856300  1
  C  1827  1  0.73984500  0.56417500  0.90223700  1
  C  1828  1  0.74555500  0.55108900  0.92853900  1
  C  1829  1  0.74578300  0.52138400  0.93128400  1
  C  1830  1  0.73975600  0.50406100  0.90752300  1
  C  1837  1  0.32079200  0.53766300  0.88100500  1
  C  1838  1  0.32104400  0.50792800  0.87816700  1
  C  1839  1  0.31466300  0.49060300  0.90178000  1
  C  1840  1  0.30903500  0.50358900  0.92815000  1
  C  1841  1  0.30887100  0.53328100  0.93101900  1
  C  1842  1  0.31487500  0.55069500  0.90732200  1
  C  1849  1  0.32030700  0.51705100  0.17228700  1
  C  1850  1  0.32060200  0.54679200  0.17505900  1
  C  1851  1  0.31424000  0.56407700  0.15141000  1
  C  1852  1  0.30857500  0.55103900  0.12507400  1
  C  1853  1  0.30836300  0.52133700  0.12226900  1
  C  1854  1  0.31436500  0.50397000  0.14600100  1
  C  1861  1  0.73454200  0.53748100  0.17222700  1
  C  1862  1  0.73427300  0.50775000  0.17511500  1
  C  1863  1  0.74072800  0.49038000  0.15155300  1
  C  1864  1  0.74646900  0.50332400  0.12518700  1
  C  1865  1  0.74664900  0.53301000  0.12226500  1
  C  1866  1  0.74054400  0.55046500  0.14590600  1
  C  1873  1  0.88191300  0.73422500  0.51638800  1
  C  1874  1  0.87913500  0.73394100  0.54612800  1
  C  1875  1  0.90276200  0.74037700  0.56341200  1
  C  1876  1  0.92908400  0.74611400  0.55037800  1
  C  1877  1  0.93189600  0.74631500  0.52067900  1
  C  1878  1  0.90818800  0.74022600  0.50330900  1
  C  1885  1  0.88161900  0.32057600  0.53678200  1
  C  1886  1  0.87876600  0.32088100  0.50704700  1
  C  1887  1  0.90236800  0.31453000  0.48969600  1
  C  1888  1  0.92874100  0.30886500  0.50266100  1
  C  1889  1  0.93162700  0.30864700  0.53235400  1
  C  1890  1  0.90794200  0.31463200  0.54978900  1
  C  1897  1  0.17300000  0.32064000  0.51627600  1
  C  1898  1  0.17581300  0.32085400  0.54601300  1
  C  1899  1  0.15218000  0.31446700  0.56331100  1
  C  1900  1  0.12581600  0.30888200  0.55029500  1
  C  1901  1  0.12297000  0.30874900  0.52060000  1
  C  1902  1  0.14669000  0.31475500  0.50321600  1
  C  1909  1  0.17272200  0.73416300  0.53678400  1
  C  1910  1  0.17548700  0.73383900  0.50704500  1
  C  1911  1  0.15185100  0.74025800  0.48976200  1
  C  1912  1  0.12553700  0.74601600  0.50280100  1
  C  1913  1  0.12273900  0.74625100  0.53250000  1
  C  1914  1  0.14645600  0.74019500  0.54986700  1
  C  1921  1  0.51718700  0.88155500  0.73352200  1
  C  1922  1  0.54693000  0.87883000  0.73319300  1
  C  1923  1  0.56418500  0.90250600  0.73953000  1
  C  1924  1  0.55111300  0.92882100  0.74521100  1
  C  1925  1  0.52140900  0.93158300  0.74545700  1
  C  1926  1  0.50407100  0.90782400  0.73947200  1
  C  1933  1  0.53752100  0.88193200  0.31983500  1
  C  1934  1  0.50778800  0.87906100  0.32008100  1
  C  1935  1  0.49043500  0.90263500  0.31362600  1
  C  1936  1  0.50339600  0.92900100  0.30791800  1
  C  1937  1  0.53308400  0.93190700  0.30776200  1
  C  1938  1  0.55052400  0.90824900  0.31385400  1
  C  1945  1  0.51702600  0.17259400  0.31995100  1
  C  1946  1  0.54676700  0.17535100  0.32025400  1
  C  1947  1  0.56403700  0.15169700  0.31387800  1
  C  1948  1  0.55099000  0.12536700  0.30820900  1
  C  1949  1  0.52129100  0.12257700  0.30798800  1
  C  1950  1  0.50393200  0.14631800  0.31398400  1
  C  1957  1  0.53758900  0.17312300  0.73348600  1
  C  1958  1  0.50785400  0.17597500  0.73323600  1
  C  1959  1  0.49051600  0.15238200  0.73966500  1
  C  1960  1  0.50349300  0.12602100  0.74535500  1
  C  1961  1  0.53318400  0.12313600  0.74551900  1
  C  1962  1  0.55060900  0.14681000  0.73944900  1
  C  1969  1  0.51719300  0.73375900  0.17183700  1
  C  1970  1  0.54693900  0.73344700  0.17454800  1
  C  1971  1  0.56417500  0.73984500  0.15087400  1
  C  1972  1  0.55108900  0.74555500  0.12457300  1
  C  1973  1  0.52138400  0.74578300  0.12182800  1
  C  1974  1  0.50406100  0.73975600  0.14558800  1
  C  1981  1  0.53766300  0.32079200  0.17210600  1
  C  1982  1  0.50792800  0.32104400  0.17494400  1
  C  1983  1  0.49060300  0.31466300  0.15133100  1
  C  1984  1  0.50358900  0.30903500  0.12496200  1
  C  1985  1  0.53328100  0.30887100  0.12209100  1
  C  1986  1  0.55069500  0.31487500  0.14578900  1
  C  1993  1  0.51705100  0.32030700  0.88082500  1
  C  1994  1  0.54679200  0.32060200  0.87805300  1
  C  1995  1  0.56407700  0.31424000  0.90170100  1
  C  1996  1  0.55103900  0.30857500  0.92803800  1
  C  1997  1  0.52133700  0.30836300  0.93084300  1
  C  1998  1  0.50397000  0.31436500  0.90711000  1
  C  2005  1  0.53748100  0.73454200  0.88088400  1
  C  2006  1  0.50775000  0.73427300  0.87799500  1
  C  2007  1  0.49038000  0.74072800  0.90155700  1
  C  2008  1  0.50332400  0.74646900  0.92792500  1
  C  2009  1  0.53301000  0.74664900  0.93084600  1
  C  2010  1  0.55046500  0.74054400  0.90720500  1
  C  2017  1  0.73422500  0.88191300  0.53672300  1
  C  2018  1  0.73394100  0.87913500  0.50698300  1
  C  2019  1  0.74037700  0.90276200  0.48969800  1
  C  2020  1  0.74611400  0.92908400  0.50273300  1
  C  2021  1  0.74631500  0.93189600  0.53243200  1
  C  2022  1  0.74022600  0.90818800  0.54980200  1
  C  2029  1  0.32057600  0.88161900  0.51632900  1
  C  2030  1  0.32088100  0.87876600  0.54606400  1
  C  2031  1  0.31453000  0.90236800  0.56341500  1
  C  2032  1  0.30886500  0.92874100  0.55045000  1
  C  2033  1  0.30864700  0.93162700  0.52075900  1
  C  2034  1  0.31463200  0.90794200  0.50332200  1
  C  2041  1  0.32064000  0.17300000  0.53683500  1
  C  2042  1  0.32085400  0.17581300  0.50709800  1
  C  2043  1  0.31446700  0.15218000  0.48980200  1
  C  2044  1  0.30888200  0.12581600  0.50281600  1
  C  2045  1  0.30874900  0.12297100  0.53251300  1
  C  2046  1  0.31475500  0.14669000  0.54989700  1
  C  2053  1  0.73416300  0.17272200  0.51632700  1
  C  2054  1  0.73383900  0.17548700  0.54606800  1
  C  2055  1  0.74025800  0.15185100  0.56334900  1
  C  2056  1  0.74601600  0.12553700  0.55031200  1
  C  2057  1  0.74625100  0.12273900  0.52061100  1
  C  2058  1  0.74019500  0.14645600  0.50324300  1
  C  2065  1  0.88155500  0.51718700  0.31958900  1
  C  2066  1  0.87883000  0.54693000  0.31991800  1
  C  2067  1  0.90250600  0.56418500  0.31358100  1
  C  2068  1  0.92882100  0.55111500  0.30789900  1
  C  2069  1  0.93158300  0.52140900  0.30765400  1
  C  2070  1  0.90782400  0.50407100  0.31363800  1
  C  2077  1  0.88193200  0.53752100  0.73327600  1
  C  2078  1  0.87906100  0.50778800  0.73303000  1
  C  2079  1  0.90263500  0.49043500  0.73948500  1
  C  2080  1  0.92900100  0.50339600  0.74519200  1
  C  2081  1  0.93190700  0.53308400  0.74534900  1
  C  2082  1  0.90824900  0.55052400  0.73925800  1
  C  2089  1  0.17259300  0.51702600  0.73315900  1
  C  2090  1  0.17535100  0.54676700  0.73285900  1
  C  2091  1  0.15169700  0.56403700  0.73923300  1
  C  2092  1  0.12536700  0.55099000  0.74490200  1
  C  2093  1  0.12257700  0.52129100  0.74512200  1
  C  2094  1  0.14631800  0.50393200  0.73912700  1
  C  2101  1  0.17312300  0.53758900  0.31962500  1
  C  2102  1  0.17597500  0.50785400  0.31987500  1
  C  2103  1  0.15238200  0.49051600  0.31344800  1
  C  2104  1  0.12602100  0.50349300  0.30775500  1
  C  2105  1  0.12313600  0.53318400  0.30759200  1
  C  2106  1  0.14681000  0.55060900  0.31366200  1
  O  17  1  0.28755000  0.08713800  0.39931100  1
  O  18  1  0.31732300  0.14760300  0.37114800  1
  O  37  1  0.76700700  0.96779800  0.39899200  1
  O  38  1  0.73691600  0.90739000  0.37105400  1
  O  57  1  0.76697100  0.08690200  0.65414500  1
  O  58  1  0.73697800  0.14731100  0.68200300  1
  O  77  1  0.28805200  0.96739300  0.65398200  1
  O  78  1  0.31783600  0.90681100  0.68206700  1
  O  97  1  0.39999500  0.28786400  0.08640300  1
  O  98  1  0.37194400  0.31761800  0.14692200  1
  O  117  1  0.39984900  0.76699900  0.96660100  1
  O  118  1  0.37174700  0.73717700  0.90615700  1
  O  137  1  0.65492800  0.76696100  0.08592300  1
  O  138  1  0.68284000  0.73682300  0.14632700  1
  O  157  1  0.65472700  0.28773000  0.96684900  1
  O  158  1  0.68272100  0.31764500  0.90635800  1
  O  177  1  0.08731600  0.39998900  0.28703300  1
  O  178  1  0.14776400  0.37188000  0.31674700  1
  O  197  1  0.96753100  0.39985600  0.76625300  1
  O  198  1  0.90704700  0.37178100  0.73633000  1
  O  217  1  0.08679200  0.65475900  0.76632100  1
  O  218  1  0.14726900  0.68270700  0.73630800  1
  O  237  1  0.96770900  0.65490100  0.28714800  1
  O  238  1  0.90726700  0.68282300  0.31713500  1
  O  257  1  0.08713800  0.28755000  0.65379900  1
  O  258  1  0.14760300  0.31732300  0.68196300  1
  O  277  1  0.96779800  0.76700700  0.65411900  1
  O  278  1  0.90739000  0.73691600  0.68205600  1
  O  297  1  0.08690200  0.76697100  0.39896600  1
  O  298  1  0.14731100  0.73697800  0.37110700  1
  O  317  1  0.96739300  0.28805200  0.39912900  1
  O  318  1  0.90681100  0.31783600  0.37104400  1
  O  337  1  0.28786400  0.39999500  0.96670700  1
  O  338  1  0.31761800  0.37194400  0.90618900  1
  O  357  1  0.76699900  0.39984900  0.08651100  1
  O  358  1  0.73717700  0.37174700  0.14695400  1
  O  377  1  0.76696100  0.65492800  0.96718800  1
  O  378  1  0.73682300  0.68284000  0.90678400  1
  O  397  1  0.28773000  0.65472700  0.08626300  1
  O  398  1  0.31764500  0.68272100  0.14675400  1
  O  417  1  0.39998900  0.08731600  0.76608000  1
  O  418  1  0.37188000  0.14776400  0.73636400  1
  O  437  1  0.39985600  0.96753100  0.28685800  1
  O  438  1  0.37178100  0.90704700  0.31678100  1
  O  457  1  0.65475900  0.08679200  0.28679200  1
  O  458  1  0.68270700  0.14726900  0.31680200  1
  O  477  1  0.65490100  0.96770900  0.76596500  1
  O  478  1  0.68282300  0.90726700  0.73597800  1
  O  497  1  0.76885600  0.98158900  0.64078800  1
  O  498  1  0.74030000  0.91975700  0.66838000  1
  O  517  1  0.28619300  0.07313400  0.64073500  1
  O  518  1  0.31447500  0.13502400  0.66846300  1
  O  537  1  0.28579000  0.98160600  0.41261300  1
  O  538  1  0.31423100  0.91982300  0.38477700  1
  O  557  1  0.76901500  0.07309300  0.41238000  1
  O  558  1  0.74053100  0.13487500  0.38467200  1
  O  577  1  0.64141300  0.76917600  0.98085800  1
  O  578  1  0.66899200  0.74056300  0.91926600  1
  O  597  1  0.64156300  0.28600800  0.07227400  1
  O  598  1  0.66926100  0.31446200  0.13412700  1
  O  617  1  0.41317800  0.28592800  0.98067600  1
  O  618  1  0.38540800  0.31425700  0.91881500  1
  O  637  1  0.41329500  0.76863100  0.07231300  1
  O  638  1  0.38546100  0.74027500  0.13428800  1
  O  657  1  0.98175600  0.64147400  0.76819300  1
  O  658  1  0.92003200  0.66907900  0.73952300  1
  O  677  1  0.07318900  0.64152700  0.28514600  1
  O  678  1  0.13483400  0.66914000  0.31362400  1
  O  697  1  0.98136200  0.41333700  0.28525900  1
  O  698  1  0.91941800  0.38550000  0.31352600  1
  O  717  1  0.07298100  0.41315900  0.76811700  1
  O  718  1  0.13494800  0.38533600  0.73977300  1
  O  737  1  0.98158900  0.76885600  0.41232500  1
  O  738  1  0.91975900  0.74030000  0.38473100  1
  O  757  1  0.07313400  0.28619300  0.41237600  1
  O  758  1  0.13502300  0.31447500  0.38465000  1
  O  777  1  0.98160600  0.28579000  0.64050000  1
  O  778  1  0.91982300  0.31423100  0.66833300  1
  O  797  1  0.07309300  0.76901500  0.64073300  1
  O  798  1  0.13487600  0.74053100  0.66843900  1
  O  817  1  0.76917600  0.64141300  0.07225300  1
  O  818  1  0.74056300  0.66899200  0.13384600  1
  O  837  1  0.28600800  0.64156300  0.98083700  1
  O  838  1  0.31446200  0.66926100  0.91898400  1
  O  857  1  0.28592800  0.41317800  0.07243600  1
  O  858  1  0.31425700  0.38540800  0.13429700  1
  O  877  1  0.76863100  0.41329500  0.98079900  1
  O  878  1  0.74027500  0.38546100  0.91882300  1
  O  897  1  0.64147400  0.98175600  0.28491800  1
  O  898  1  0.66907900  0.92003200  0.31358800  1
  O  917  1  0.64152700  0.07318900  0.76796400  1
  O  918  1  0.66914000  0.13483400  0.73948700  1
  O  937  1  0.41333700  0.98136200  0.76785200  1
  O  938  1  0.38550000  0.91941800  0.73958500  1
  O  957  1  0.41315900  0.07298100  0.28499600  1
  O  958  1  0.38533900  0.13494800  0.31333800  1
  O  968  1  0.18925700  0.16236900  0.33806200  1
  O  970  1  0.14935300  0.18783900  0.44570700  1
  O  980  1  0.86510500  0.89215000  0.33767900  1
  O  982  1  0.90498600  0.86704000  0.44541700  1
  O  992  1  0.86538400  0.16226900  0.71518200  1
  O  994  1  0.90490300  0.18769500  0.60738700  1
  O  1004  1  0.18983600  0.89195800  0.71539600  1
  O  1006  1  0.14954700  0.86737100  0.60768600  1
  O  1016  1  0.33878900  0.18946300  0.16158600  1
  O  1018  1  0.44647500  0.14953700  0.18684400  1
  O  1028  1  0.33832500  0.86476000  0.89072100  1
  O  1030  1  0.44593300  0.90577400  0.86692200  1
  O  1040  1  0.71587400  0.86548200  0.16122000  1
  O  1042  1  0.60805000  0.90444800  0.18736900  1
  O  1052  1  0.71609500  0.18951000  0.89142400  1
  O  1054  1  0.60837800  0.14956800  0.86631000  1
  O  1064  1  0.16277900  0.33849200  0.18902100  1
  O  1066  1  0.18716300  0.44605400  0.14823200  1
  O  1076  1  0.89192400  0.33861900  0.86438900  1
  O  1078  1  0.86699200  0.44635900  0.90438500  1
  O  1088  1  0.16201500  0.71579400  0.86476800  1
  O  1090  1  0.18821900  0.60805200  0.90393300  1
  O  1100  1  0.89224800  0.71617500  0.18880700  1
  O  1102  1  0.86735000  0.60835900  0.14899800  1
  O  1112  1  0.16236900  0.18925700  0.71504900  1
  O  1114  1  0.18783800  0.14935300  0.60740400  1
  O  1124  1  0.89215000  0.86510500  0.71543400  1
  O  1126  1  0.86704000  0.90498800  0.60769600  1
  O  1136  1  0.16226800  0.86538400  0.33792900  1
  O  1138  1  0.18769600  0.90490300  0.44572400  1
  O  1148  1  0.89195800  0.18983600  0.33771500  1
  O  1150  1  0.86737100  0.14954700  0.44542500  1
  O  1160  1  0.18946300  0.33878900  0.89152600  1
  O  1162  1  0.14953700  0.44647500  0.86626700  1
  O  1172  1  0.86476000  0.33832500  0.16239100  1
  O  1174  1  0.90577400  0.44593300  0.18619000  1
  O  1184  1  0.86548200  0.71587400  0.89189200  1
  O  1186  1  0.90444800  0.60805000  0.86574200  1
  O  1196  1  0.18951000  0.71609500  0.16168800  1
  O  1198  1  0.14956800  0.60837800  0.18680100  1
  O  1208  1  0.33849200  0.16277900  0.86409000  1
  O  1210  1  0.44605400  0.18716400  0.90488000  1
  O  1220  1  0.33861900  0.89192400  0.18872200  1
  O  1222  1  0.44635900  0.86699200  0.14872700  1
  O  1232  1  0.71579400  0.16201500  0.18834200  1
  O  1234  1  0.60805200  0.18821900  0.14917700  1
  O  1244  1  0.71617500  0.89224800  0.86430400  1
  O  1246  1  0.60835900  0.86735000  0.90411300  1
  O  1256  1  0.70058000  0.67601900  0.84917700  1
  O  1258  1  0.63051700  0.67116100  0.94327200  1
  O  1268  1  0.35371700  0.37848600  0.84867300  1
  O  1270  1  0.42407200  0.38393500  0.94251600  1
  O  1280  1  0.35371900  0.67604400  0.20439500  1
  O  1282  1  0.42388600  0.67053000  0.11040000  1
  O  1292  1  0.70097600  0.37843900  0.20451400  1
  O  1294  1  0.63101100  0.38423500  0.11038700  1
  O  1304  1  0.84978300  0.70067300  0.67521200  1
  O  1306  1  0.94400100  0.63079700  0.66994100  1
  O  1316  1  0.84920500  0.35383900  0.37767500  1
  O  1318  1  0.94309200  0.42413100  0.38320400  1
  O  1328  1  0.20510200  0.35352000  0.67557200  1
  O  1330  1  0.11116600  0.42375000  0.66990700  1
  O  1340  1  0.20491700  0.70080900  0.37796700  1
  O  1342  1  0.11091100  0.63063800  0.38309200  1
  O  1352  1  0.67597600  0.84954600  0.69986400  1
  O  1354  1  0.67077500  0.94370900  0.62991100  1
  O  1364  1  0.37839000  0.84956500  0.35297500  1
  O  1366  1  0.38399000  0.94354600  0.42314200  1
  O  1376  1  0.67601400  0.20483100  0.35298800  1
  O  1378  1  0.67095700  0.11084000  0.42318700  1
  O  1388  1  0.37845400  0.20531700  0.70023300  1
  O  1390  1  0.38422900  0.11138700  0.63000900  1
  O  1400  1  0.67601900  0.70058000  0.20393500  1
  O  1402  1  0.67116100  0.63051700  0.10983900  1
  O  1412  1  0.37848600  0.35371700  0.20443800  1
  O  1414  1  0.38393500  0.42407200  0.11059600  1
  O  1424  1  0.67604400  0.35371900  0.84871600  1
  O  1426  1  0.67053000  0.42388600  0.94271100  1
  O  1436  1  0.37843900  0.70097600  0.84859700  1
  O  1438  1  0.38423500  0.63101100  0.94272400  1
  O  1448  1  0.70067300  0.84978300  0.37789900  1
  O  1450  1  0.63079700  0.94400100  0.38317000  1
  O  1460  1  0.35383900  0.84920500  0.67543600  1
  O  1462  1  0.42413100  0.94309200  0.66990700  1
  O  1472  1  0.35352000  0.20510100  0.37754100  1
  O  1474  1  0.42375000  0.11116600  0.38320400  1
  O  1484  1  0.70080900  0.20491700  0.67514400  1
  O  1486  1  0.63063800  0.11091100  0.67001900  1
  O  1496  1  0.84954600  0.67597600  0.35324900  1
  O  1498  1  0.94370900  0.67077500  0.42319900  1
  O  1508  1  0.84956500  0.37839000  0.70013500  1
  O  1510  1  0.94354600  0.38399000  0.62996900  1
  O  1520  1  0.20483100  0.67601400  0.70012500  1
  O  1522  1  0.11084100  0.67095700  0.62992400  1
  O  1532  1  0.20531700  0.37845400  0.35287800  1
  O  1534  1  0.11138700  0.38422900  0.42310200  1
  O  1544  1  0.26862600  0.05716900  0.34269600  1
  O  1546  1  0.20446300  0.00850400  0.42824000  1
  O  1556  1  0.78608600  0.99770700  0.34224900  1
  O  1558  1  0.85020200  0.04613100  0.42795600  1
  O  1568  1  0.78597100  0.05704400  0.71084500  1
  O  1570  1  0.85009000  0.00843800  0.62523800  1
  O  1580  1  0.26914900  0.99750600  0.71061800  1
  O  1582  1  0.20489100  0.04600800  0.62506000  1
  O  1592  1  0.34336900  0.26904100  0.05644800  1
  O  1594  1  0.42868900  0.20461600  0.00773500  1
  O  1604  1  0.34303900  0.78623000  0.99678800  1
  O  1606  1  0.42926700  0.84957500  0.04530500  1
  O  1616  1  0.71156300  0.78604300  0.05615100  1
  O  1618  1  0.62600200  0.85040400  0.00778100  1
  O  1628  1  0.71139500  0.26888900  0.99680700  1
  O  1630  1  0.62595800  0.20454400  0.04540200  1
  O  1640  1  0.05717500  0.34326600  0.26808600  1
  O  1642  1  0.00849700  0.42900200  0.20419300  1
  O  1652  1  0.99750600  0.34316600  0.78539100  1
  O  1654  1  0.04600200  0.42898100  0.84930900  1
  O  1664  1  0.05704600  0.71142100  0.78530200  1
  O  1666  1  0.00845900  0.62593000  0.84958800  1
  O  1676  1  0.99771500  0.71154600  0.26826400  1
  O  1678  1  0.04614900  0.62608700  0.20382300  1
  O  1688  1  0.05716900  0.26862600  0.71041500  1
  O  1690  1  0.00850400  0.20446400  0.62487300  1
  O  1700  1  0.99770700  0.78608600  0.71086200  1
  O  1702  1  0.04613100  0.85020200  0.62515500  1
  O  1712  1  0.05704400  0.78597100  0.34226600  1
  O  1714  1  0.00843800  0.85009000  0.42787500  1
  O  1724  1  0.99750600  0.26914900  0.34249300  1
  O  1726  1  0.04600800  0.20489100  0.42805100  1
  O  1736  1  0.26904100  0.34336900  0.99666500  1
  O  1738  1  0.20461600  0.42868900  0.04537600  1
  O  1748  1  0.78623000  0.34303900  0.05632500  1
  O  1750  1  0.84957500  0.42926700  0.00780700  1
  O  1760  1  0.78604300  0.71156300  0.99695900  1
  O  1762  1  0.85040400  0.62600200  0.04533100  1
  O  1772  1  0.26888900  0.71139500  0.05630400  1
  O  1774  1  0.20454400  0.62595800  0.00771000  1
  O  1784  1  0.34326600  0.05717500  0.78502500  1
  O  1786  1  0.42900200  0.00849600  0.84891900  1
  O  1796  1  0.34316600  0.99750600  0.26772000  1
  O  1798  1  0.42898100  0.04600200  0.20380300  1
  O  1808  1  0.71142100  0.05704600  0.26780900  1
  O  1810  1  0.62593000  0.00845900  0.20352200  1
  O  1820  1  0.71154600  0.99771500  0.78484700  1
  O  1822  1  0.62608700  0.04614900  0.84928700  1
  O  1832  1  0.72882200  0.55860300  0.85258900  1
  O  1834  1  0.74975400  0.50991200  0.95748500  1
  O  1844  1  0.32559300  0.49636500  0.85213400  1
  O  1846  1  0.30496200  0.54464900  0.95727500  1
  O  1856  1  0.32519300  0.55840800  0.20106100  1
  O  1858  1  0.30445600  0.50992100  0.09603500  1
  O  1868  1  0.72960800  0.49622900  0.20114600  1
  O  1870  1  0.75063700  0.54433000  0.09600100  1
  O  1880  1  0.85314400  0.72928000  0.55774100  1
  O  1882  1  0.95812200  0.75029000  0.50926600  1
  O  1892  1  0.85272900  0.32546200  0.49550500  1
  O  1894  1  0.95788900  0.30471900  0.54369800  1
  O  1904  1  0.20183700  0.32537300  0.55760600  1
  O  1906  1  0.09672000  0.30489000  0.50920500  1
  O  1916  1  0.20147400  0.72917000  0.49542700  1
  O  1918  1  0.09652300  0.75026400  0.54392100  1
  O  1928  1  0.55858200  0.85284500  0.72858700  1
  O  1930  1  0.50996100  0.95780000  0.74936600  1
  O  1940  1  0.49625300  0.85302700  0.32470600  1
  O  1942  1  0.54442300  0.95816400  0.30378700  1
  O  1952  1  0.55839100  0.20135000  0.32483700  1
  O  1954  1  0.50985700  0.09635500  0.30404700  1
  O  1964  1  0.49629900  0.20200000  0.72861700  1
  O  1966  1  0.54453700  0.09688100  0.74946600  1
  O  1976  1  0.55860300  0.72882200  0.20052200  1
  O  1978  1  0.50991200  0.74975400  0.09562700  1
  O  1988  1  0.49636500  0.32559300  0.20097700  1
  O  1990  1  0.54464900  0.30496200  0.09583600  1
  O  2000  1  0.55840800  0.32519300  0.85204900  1
  O  2002  1  0.50992100  0.30445600  0.95707600  1
  O  2012  1  0.49622900  0.72960800  0.85196400  1
  O  2014  1  0.54433000  0.75063700  0.95711000  1
  O  2024  1  0.72928000  0.85314400  0.49537000  1
  O  2026  1  0.75029000  0.95812200  0.54384700  1
  O  2036  1  0.32546200  0.85272900  0.55760600  1
  O  2038  1  0.30471900  0.95788900  0.50941200  1
  O  2048  1  0.32537300  0.20183700  0.49550500  1
  O  2050  1  0.30489000  0.09672000  0.54390600  1
  O  2060  1  0.72917000  0.20147400  0.55768400  1
  O  2062  1  0.75026400  0.09652300  0.50919000  1
  O  2072  1  0.85284500  0.55858200  0.32452400  1
  O  2074  1  0.95780000  0.50996100  0.30374400  1
  O  2084  1  0.85302700  0.49625300  0.72840500  1
  O  2086  1  0.95816400  0.54442300  0.74932400  1
  O  2096  1  0.20135000  0.55839100  0.72827400  1
  O  2098  1  0.09635500  0.50985500  0.74906600  1
  O  2108  1  0.20200000  0.49629900  0.32449400  1
  O  2110  1  0.09688100  0.54453700  0.30364500  1
