# generated using pymatgen
data_H12C15N2
_symmetry_space_group_name_H-M   'P 1'
_cell_length_a   29.56600000
_cell_length_b   29.56600000
_cell_length_c   78.37100000
_cell_angle_alpha   90.00000000
_cell_angle_beta   90.00000000
_cell_angle_gamma   90.00000000
_symmetry_Int_Tables_number   1
_chemical_formula_structural   H12C15N2
_chemical_formula_sum   'H768 C960 N128'
_cell_volume   68507.88080808
_cell_formula_units_Z   64
loop_
 _symmetry_equiv_pos_site_id
 _symmetry_equiv_pos_as_xyz
  1  'x, y, z'
loop_
 _atom_site_type_symbol
 _atom_site_label
 _atom_site_symmetry_multiplicity
 _atom_site_fract_x
 _atom_site_fract_y
 _atom_site_fract_z
 _atom_site_occupancy
  H  5  1  0.04151700  0.06294300  0.10939000  1
  H  6  1  0.07281000  0.06992700  0.09058700  1
  H  9  1  0.07334200  0.01032100  0.06752600  1
  H  10  1  0.04499900  0.95818500  0.07037300  1
  H  11  1  0.02733800  0.08155700  0.06145100  1
  H  12  1  0.96800700  0.08117100  0.06218000  1
  H  15  1  0.95936500  0.95442700  0.07042000  1
  H  16  1  0.92649600  0.00345100  0.06753300  1
  H  18  1  0.00230600  0.94304200  0.09828800  1
  H  19  1  0.00090900  0.98428200  0.11433600  1
  H  21  1  0.92521800  0.06589400  0.08985700  1
  H  22  1  0.95561700  0.06011700  0.10903900  1
  H  27  1  0.45739700  0.93598300  0.60938100  1
  H  28  1  0.42610100  0.92901300  0.59057800  1
  H  31  1  0.42557600  0.98863200  0.56752000  1
  H  32  1  0.45393700  0.04075800  0.57037000  1
  H  33  1  0.47156200  0.91738100  0.56144200  1
  H  34  1  0.53089300  0.91775300  0.56216800  1
  H  37  1  0.53956500  0.04449600  0.57041500  1
  H  38  1  0.57242400  0.99546700  0.56752500  1
  H  40  1  0.49663400  0.05587900  0.59828500  1
  H  41  1  0.49802400  0.01463600  0.61433200  1
  H  43  1  0.57369200  0.93301700  0.58984400  1
  H  44  1  0.54329900  0.93879400  0.60902900  1
  H  49  1  0.18559500  0.79072900  0.35936900  1
  H  50  1  0.17853900  0.82215000  0.34060200  1
  H  53  1  0.23809500  0.82284000  0.31749900  1
  H  54  1  0.29024800  0.79451400  0.32030700  1
  H  55  1  0.16688100  0.77685100  0.31141500  1
  H  56  1  0.16729800  0.71751300  0.31208500  1
  H  59  1  0.29406100  0.70889500  0.32031100  1
  H  60  1  0.24506200  0.67599900  0.31741100  1
  H  62  1  0.30546200  0.75166700  0.34819900  1
  H  63  1  0.26425300  0.75017900  0.36425700  1
  H  65  1  0.18265800  0.67456500  0.33971200  1
  H  66  1  0.18834800  0.70483300  0.35892700  1
  H  71  1  0.31335700  0.20822600  0.85937100  1
  H  72  1  0.32040300  0.17680200  0.84060400  1
  H  75  1  0.26084300  0.17612100  0.81750400  1
  H  76  1  0.20869400  0.20445600  0.82031200  1
  H  77  1  0.33206300  0.22209700  0.81141700  1
  H  78  1  0.33165500  0.28143600  0.81208500  1
  H  81  1  0.20489400  0.29007300  0.82031500  1
  H  82  1  0.25389500  0.32296300  0.81741300  1
  H  84  1  0.19349600  0.24730900  0.84820500  1
  H  85  1  0.23471300  0.24879100  0.86426100  1
  H  87  1  0.31630500  0.32439200  0.83971200  1
  H  88  1  0.31061700  0.29412600  0.85892800  1
  H  93  1  0.45782300  0.06328200  0.38903000  1
  H  94  1  0.42557000  0.07064000  0.40758300  1
  H  97  1  0.42366900  0.01127400  0.43073100  1
  H  98  1  0.45185300  0.95893500  0.42812900  1
  H  99  1  0.46963700  0.08220800  0.43709800  1
  H  100  1  0.52899600  0.08152300  0.43679900  1
  H  103  1  0.53750200  0.95471800  0.42869700  1
  H  104  1  0.57043500  0.00360000  0.43179900  1
  H  106  1  0.49587300  0.94339700  0.40055500  1
  H  107  1  0.49824400  0.98450900  0.38448000  1
  H  109  1  0.57307300  0.06594400  0.40947500  1
  H  110  1  0.54365100  0.06034700  0.39007300  1
  H  115  1  0.04112200  0.93566200  0.88903500  1
  H  116  1  0.07338300  0.92831200  0.90758500  1
  H  119  1  0.07527400  0.98767800  0.93073400  1
  H  120  1  0.04707000  0.04000700  0.92813500  1
  H  121  1  0.02932700  0.91672500  0.93710100  1
  H  122  1  0.96996800  0.91739400  0.93680700  1
  H  125  1  0.96142500  0.04419900  0.92870700  1
  H  126  1  0.92850500  0.99530800  0.93180900  1
  H  128  1  0.00303700  0.05553700  0.90056400  1
  H  129  1  0.00067700  0.01442400  0.88448800  1
  H  131  1  0.92587700  0.93296600  0.90948500  1
  H  132  1  0.95529300  0.93857800  0.89008200  1
  H  137  1  0.31414800  0.79089100  0.13907200  1
  H  138  1  0.32132900  0.82294100  0.15768500  1
  H  141  1  0.26167700  0.82475100  0.18070600  1
  H  142  1  0.20928700  0.79672900  0.17797600  1
  H  143  1  0.33237500  0.77849900  0.18716500  1
  H  144  1  0.33150000  0.71914700  0.18677400  1
  H  147  1  0.20484100  0.71105600  0.17840400  1
  H  148  1  0.25360200  0.67798100  0.18155200  1
  H  150  1  0.19401000  0.75306100  0.15031400  1
  H  151  1  0.23532100  0.75079100  0.13431000  1
  H  153  1  0.31622700  0.67541400  0.15933100  1
  H  154  1  0.31096700  0.70505300  0.13996500  1
  H  159  1  0.18477300  0.20805400  0.63907700  1
  H  160  1  0.17760200  0.17600400  0.65768800  1
  H  163  1  0.23725200  0.17420900  0.68070900  1
  H  164  1  0.28963500  0.20224600  0.67798100  1
  H  165  1  0.16654200  0.22044300  0.68717000  1
  H  166  1  0.16740100  0.27979500  0.68677900  1
  H  169  1  0.29405900  0.28791600  0.67841000  1
  H  170  1  0.24529200  0.32098100  0.68155700  1
  H  172  1  0.30490000  0.24592100  0.65031900  1
  H  173  1  0.26358400  0.24817800  0.63431600  1
  H  175  1  0.18266600  0.32353600  0.65933800  1
  H  176  1  0.18793100  0.29389900  0.63997100  1
  H  181  1  0.81348100  0.20855800  0.63962300  1
  H  182  1  0.81930600  0.17657000  0.65831100  1
  H  185  1  0.75945300  0.17712800  0.68128600  1
  H  186  1  0.70809300  0.20681900  0.67843700  1
  H  187  1  0.83167400  0.22112500  0.68768700  1
  H  188  1  0.83284100  0.28046400  0.68713900  1
  H  191  1  0.70651400  0.29248400  0.67859500  1
  H  192  1  0.75623600  0.32413900  0.68168200  1
  H  194  1  0.69452700  0.25057300  0.65059600  1
  H  195  1  0.73604800  0.25126300  0.63464700  1
  H  197  1  0.81918400  0.32424000  0.65958600  1
  H  198  1  0.81311600  0.29449400  0.64027700  1
  H  203  1  0.68541900  0.79034300  0.13962600  1
  H  204  1  0.67960100  0.82232600  0.15831500  1
  H  207  1  0.73946000  0.82175800  0.18128900  1
  H  208  1  0.79082000  0.79206500  0.17843500  1
  H  209  1  0.66723900  0.77776100  0.18768900  1
  H  210  1  0.66606900  0.71842300  0.18713900  1
  H  213  1  0.79239600  0.70640200  0.17859000  1
  H  214  1  0.74267400  0.67474800  0.18167800  1
  H  216  1  0.80437300  0.74832200  0.15059100  1
  H  217  1  0.76284200  0.74763900  0.13464400  1
  H  219  1  0.67972300  0.67465300  0.15958300  1
  H  220  1  0.68578400  0.70440700  0.14027600  1
  H  225  1  0.68474600  0.20832300  0.85985500  1
  H  226  1  0.67874900  0.17567500  0.84133400  1
  H  229  1  0.73860500  0.17519500  0.81839300  1
  H  230  1  0.79019800  0.20464100  0.82112900  1
  H  231  1  0.66683300  0.21933900  0.81165800  1
  H  232  1  0.66604500  0.27870000  0.81192000  1
  H  235  1  0.79231500  0.29036400  0.82053500  1
  H  236  1  0.74278500  0.32215200  0.81722800  1
  H  238  1  0.80387900  0.24925200  0.84872900  1
  H  239  1  0.76229700  0.25067400  0.86464900  1
  H  241  1  0.67966900  0.32329400  0.83926400  1
  H  242  1  0.68537100  0.29419700  0.85872200  1
  H  247  1  0.81419500  0.79059000  0.35985100  1
  H  248  1  0.82018800  0.82323600  0.34132900  1
  H  251  1  0.76034300  0.82369200  0.31838400  1
  H  252  1  0.70875600  0.79423600  0.32111900  1
  H  253  1  0.83212800  0.77956100  0.31165700  1
  H  254  1  0.83292900  0.72020200  0.31192000  1
  H  257  1  0.70665900  0.70851600  0.32052800  1
  H  258  1  0.75619300  0.67673300  0.31722400  1
  H  260  1  0.69507200  0.74963100  0.34872100  1
  H  261  1  0.73665300  0.74822100  0.36464100  1
  H  263  1  0.81929900  0.67561000  0.33926400  1
  H  264  1  0.81358600  0.70471100  0.35872100  1
  H  269  1  0.54292100  0.56429000  0.60953800  1
  H  270  1  0.57358400  0.57123400  0.59045800  1
  H  273  1  0.57425100  0.51016700  0.56781800  1
  H  274  1  0.54434100  0.45902400  0.57096700  1
  H  275  1  0.53109300  0.58358900  0.56238800  1
  H  276  1  0.47183600  0.58371100  0.56193700  1
  H  279  1  0.45871900  0.45785300  0.57062900  1
  H  280  1  0.42732200  0.50778900  0.56764100  1
  H  282  1  0.50147100  0.44540300  0.59863100  1
  H  283  1  0.50084200  0.48672400  0.61464800  1
  H  285  1  0.42588400  0.56905500  0.59048700  1
  H  286  1  0.45674400  0.56373800  0.60945700  1
  H  291  1  0.95600300  0.43463800  0.10953400  1
  H  292  1  0.92533600  0.42769400  0.09045400  1
  H  295  1  0.92467000  0.48875700  0.06781500  1
  H  296  1  0.95457900  0.53990400  0.07096200  1
  H  297  1  0.96783100  0.41533800  0.06238200  1
  H  298  1  0.02709200  0.41522000  0.06193300  1
  H  301  1  0.04019900  0.54107400  0.07062400  1
  H  302  1  0.07160000  0.49113800  0.06763500  1
  H  304  1  0.99745300  0.55352400  0.09862600  1
  H  305  1  0.99808200  0.51220300  0.11464400  1
  H  307  1  0.07303800  0.42986900  0.09048200  1
  H  308  1  0.04218000  0.43518500  0.10945200  1
  H  313  1  0.95482300  0.56371500  0.88985800  1
  H  314  1  0.92512300  0.57006300  0.90916300  1
  H  317  1  0.92493700  0.50756900  0.93146800  1
  H  318  1  0.95614500  0.45755200  0.92834800  1
  H  319  1  0.96931900  0.58405900  0.93663300  1
  H  320  1  0.02860400  0.58218900  0.93719500  1
  H  323  1  0.04177100  0.45844900  0.92797800  1
  H  324  1  0.07187800  0.50947000  0.93109700  1
  H  326  1  0.99841700  0.44513600  0.90032900  1
  H  327  1  0.99794300  0.48653800  0.88434100  1
  H  329  1  0.07282100  0.56970500  0.90794100  1
  H  330  1  0.04088800  0.56389700  0.88923300  1
  H  335  1  0.54411500  0.43522600  0.38986300  1
  H  336  1  0.57381400  0.42889400  0.40916800  1
  H  339  1  0.57399000  0.49139900  0.43146900  1
  H  340  1  0.54277500  0.54140500  0.42834600  1
  H  341  1  0.52962500  0.41490200  0.43664000  1
  H  342  1  0.47033700  0.41676200  0.43720200  1
  H  345  1  0.45715000  0.54049200  0.42798000  1
  H  346  1  0.42705100  0.48946700  0.43110100  1
  H  348  1  0.50049700  0.55380100  0.40032800  1
  H  349  1  0.50097400  0.51239200  0.38434200  1
  H  351  1  0.42611800  0.42922300  0.40794900  1
  H  352  1  0.45804600  0.43502600  0.38924000  1
  H  365  1  0.06519900  0.98075400  0.04067700  1
  H  366  1  0.93063600  0.02587200  0.01055700  1
  H  367  1  0.93197200  0.03280400  0.04078300  1
  H  368  1  0.93520500  0.96596000  0.95864900  1
  H  369  1  0.06851200  0.01773300  0.95748500  1
  H  370  1  0.06704600  0.02273300  0.98760000  1
  H  383  1  0.43374800  0.01826700  0.54067400  1
  H  384  1  0.56827400  0.97303900  0.51055300  1
  H  385  1  0.56692500  0.96608200  0.54077400  1
  H  386  1  0.56375200  0.03295100  0.45864000  1
  H  387  1  0.43042000  0.98124800  0.45748300  1
  H  388  1  0.43188100  0.97628300  0.48759700  1
  H  401  1  0.26742100  0.81482700  0.29059000  1
  H  402  1  0.22280800  0.68008100  0.26047800  1
  H  403  1  0.21575100  0.68146800  0.29068900  1
  H  404  1  0.28231400  0.68440700  0.20854000  1
  H  405  1  0.23150000  0.81806800  0.20736700  1
  H  406  1  0.22636000  0.81664000  0.23746400  1
  H  419  1  0.23149800  0.18413400  0.79059600  1
  H  420  1  0.27611900  0.31886900  0.76048000  1
  H  421  1  0.28319800  0.31748500  0.79069000  1
  H  422  1  0.21658400  0.31454400  0.70854500  1
  H  423  1  0.26741800  0.18089100  0.70737400  1
  H  424  1  0.27254600  0.18231600  0.73747200  1
  H  437  1  0.73060200  0.18529000  0.70823500  1
  H  438  1  0.77722700  0.31893900  0.73861400  1
  H  439  1  0.78462400  0.31771400  0.70841900  1
  H  440  1  0.71490900  0.31472200  0.79024700  1
  H  441  1  0.76821300  0.18205000  0.79167700  1
  H  442  1  0.77345900  0.18325800  0.76155600  1
  H  455  1  0.76837500  0.81356900  0.20823100  1
  H  456  1  0.72168300  0.67993900  0.23860700  1
  H  457  1  0.71425900  0.68118100  0.20841800  1
  H  458  1  0.78408600  0.68415700  0.29024400  1
  H  459  1  0.73072100  0.81680600  0.29166800  1
  H  460  1  0.72546800  0.81558500  0.26154800  1
  H  473  1  0.56277500  0.47433200  0.54143700  1
  H  474  1  0.43569300  0.53469200  0.51060100  1
  H  475  1  0.43616300  0.54069500  0.54072400  1
  H  476  1  0.43874000  0.52550200  0.45751900  1
  H  477  1  0.56470900  0.45794800  0.45828500  1
  H  478  1  0.56514200  0.46391100  0.48841800  1
  H  491  1  0.93611900  0.52455800  0.04143100  1
  H  492  1  0.06323800  0.46426300  0.01059700  1
  H  493  1  0.06276700  0.45825600  0.04072000  1
  H  494  1  0.06017100  0.47341900  0.95751500  1
  H  495  1  0.93422100  0.54101000  0.95828300  1
  H  496  1  0.93377800  0.53502600  0.98841500  1
  H  509  1  0.80064200  0.86512200  0.16782700  1
  H  510  1  0.78334200  0.87266400  0.10682300  1
  H  511  1  0.74289300  0.81656600  0.12199800  1
  H  512  1  0.88522200  0.94288300  0.08096700  1
  H  513  1  0.93126500  0.00306800  0.12672300  1
  H  514  1  0.87399000  0.96397500  0.14171400  1
  H  527  1  0.69828500  0.13375400  0.66782500  1
  H  528  1  0.71555100  0.12627700  0.60682000  1
  H  529  1  0.75596900  0.18237600  0.62199400  1
  H  530  1  0.61370800  0.05603400  0.58096200  1
  H  531  1  0.56763800  0.99586600  0.62671600  1
  H  532  1  0.62491000  0.03494200  0.64170800  1
  H  545  1  0.38360300  0.55008100  0.41757900  1
  H  546  1  0.37577300  0.53279400  0.35657600  1
  H  547  1  0.43209700  0.49258900  0.37169000  1
  H  548  1  0.30559700  0.63470200  0.33080200  1
  H  549  1  0.24539600  0.68052100  0.37659200  1
  H  550  1  0.28441700  0.62314800  0.39154100  1
  H  563  1  0.11533200  0.44885000  0.91757900  1
  H  564  1  0.12316000  0.46613700  0.85657700  1
  H  565  1  0.06682500  0.50632500  0.87168400  1
  H  566  1  0.19335500  0.36425900  0.83080800  1
  H  567  1  0.25360900  0.31846700  0.87659200  1
  H  568  1  0.21457200  0.37584400  0.89154600  1
  H  581  1  0.70007700  0.86722200  0.33184800  1
  H  582  1  0.71529800  0.87221400  0.39296800  1
  H  583  1  0.75623000  0.81659300  0.37765000  1
  H  584  1  0.61199700  0.94243300  0.41852100  1
  H  585  1  0.56842300  0.00355500  0.37259900  1
  H  586  1  0.62635100  0.96480400  0.35792800  1
  H  599  1  0.79885600  0.13166200  0.83186200  1
  H  600  1  0.78365300  0.12672900  0.89298100  1
  H  601  1  0.74274100  0.18234100  0.87766100  1
  H  602  1  0.88693400  0.05648100  0.91853200  1
  H  603  1  0.93052800  0.99539300  0.87260800  1
  H  604  1  0.87260000  0.03412700  0.85794100  1
  H  617  1  0.11368700  0.55242800  0.08126500  1
  H  618  1  0.12317500  0.53344700  0.14216700  1
  H  619  1  0.06730600  0.49264700  0.12703500  1
  H  620  1  0.19244600  0.63675800  0.16802400  1
  H  621  1  0.25408500  0.68086600  0.12228300  1
  H  622  1  0.21444600  0.62390600  0.10735700  1
  H  635  1  0.38521900  0.44650200  0.58126800  1
  H  636  1  0.37574200  0.46549700  0.64217100  1
  H  637  1  0.43161700  0.50627700  0.62704200  1
  H  638  1  0.30645500  0.36220600  0.66802600  1
  H  639  1  0.24477100  0.31811800  0.62229100  1
  H  640  1  0.28442000  0.37507900  0.60736000  1
  H  653  1  0.20033000  0.13108400  0.83068200  1
  H  654  1  0.21761400  0.12225400  0.89164700  1
  H  655  1  0.25645800  0.17991300  0.87674800  1
  H  656  1  0.12021400  0.04754200  0.91750100  1
  H  657  1  0.06894700  0.99312000  0.87151600  1
  H  658  1  0.12603400  0.03239500  0.85640800  1
  H  671  1  0.29861500  0.86788500  0.33068000  1
  H  672  1  0.28134800  0.87667500  0.39164300  1
  H  673  1  0.24253000  0.81902100  0.37674600  1
  H  674  1  0.37870200  0.95142300  0.41749900  1
  H  675  1  0.43001400  0.00579200  0.37151100  1
  H  676  1  0.37292500  0.96653900  0.35640600  1
  H  689  1  0.61804700  0.44991200  0.58135600  1
  H  690  1  0.62636400  0.46835500  0.64229600  1
  H  691  1  0.56957600  0.50780600  0.62717600  1
  H  692  1  0.69640100  0.36667800  0.66819700  1
  H  693  1  0.75700100  0.32065800  0.62251500  1
  H  694  1  0.71822700  0.37809300  0.60749100  1
  H  707  1  0.88086300  0.54901500  0.08135000  1
  H  708  1  0.87254600  0.53056200  0.14228900  1
  H  709  1  0.92934400  0.49112500  0.12717100  1
  H  710  1  0.80251300  0.63221600  0.16818700  1
  H  711  1  0.74186200  0.67822500  0.12251300  1
  H  712  1  0.78064300  0.62078400  0.10748200  1
  H  725  1  0.29688100  0.12902700  0.66745600  1
  H  726  1  0.28115400  0.12272900  0.60638900  1
  H  727  1  0.24190600  0.17985900  0.62149200  1
  H  728  1  0.38052500  0.04916000  0.58068700  1
  H  729  1  0.42907700  0.99277500  0.62675300  1
  H  730  1  0.37122400  0.03137100  0.64162100  1
  H  743  1  0.20206400  0.86994800  0.16745100  1
  H  744  1  0.21776000  0.87620500  0.10638300  1
  H  745  1  0.25697800  0.81907200  0.12148600  1
  H  746  1  0.11842200  0.94980700  0.08068500  1
  H  747  1  0.06983400  0.00613300  0.12675700  1
  H  748  1  0.12770300  0.96756700  0.14162000  1
  H  761  1  0.88236100  0.44705000  0.91772100  1
  H  762  1  0.87249800  0.46769200  0.85690700  1
  H  763  1  0.92891800  0.50750500  0.87210000  1
  H  764  1  0.80343300  0.36456700  0.83085700  1
  H  765  1  0.74118500  0.32033400  0.87646200  1
  H  766  1  0.78049400  0.37736200  0.89147500  1
  H  779  1  0.61657600  0.55190400  0.41772100  1
  H  780  1  0.62642900  0.53123500  0.35690900  1
  H  781  1  0.57000200  0.49144300  0.37210100  1
  H  782  1  0.69552500  0.63432600  0.33085700  1
  H  783  1  0.75781300  0.67854600  0.37645500  1
  H  784  1  0.71848700  0.62151800  0.39147500  1
  H  797  1  0.93903100  0.35698400  0.10318300  1
  H  798  1  0.06787600  0.27989000  0.07949100  1
  H  799  1  0.06514600  0.35964300  0.07772100  1
  H  800  1  0.06215800  0.13969100  0.07720000  1
  H  801  1  0.93708900  0.13675300  0.10337400  1
  H  802  1  0.93971100  0.21632300  0.10547200  1
  H  815  1  0.55988300  0.64195000  0.60318500  1
  H  816  1  0.43103900  0.71902500  0.57948200  1
  H  817  1  0.43377800  0.63927800  0.57771500  1
  H  818  1  0.43674800  0.85923300  0.57719200  1
  H  819  1  0.56182700  0.86216900  0.60335700  1
  H  820  1  0.55919600  0.78260500  0.60546400  1
  H  833  1  0.89093200  0.68770200  0.35218200  1
  H  834  1  0.96892000  0.81736700  0.32953800  1
  H  835  1  0.88920700  0.81514200  0.32768700  1
  H  836  1  0.10880200  0.81163100  0.32731000  1
  H  837  1  0.11169500  0.68593600  0.35305500  1
  H  838  1  0.03204700  0.68826700  0.35497400  1
  H  851  1  0.60802900  0.31122200  0.85218000  1
  H  852  1  0.53002700  0.18156500  0.82953200  1
  H  853  1  0.60974100  0.18377400  0.82768600  1
  H  854  1  0.39014400  0.18731500  0.82731100  1
  H  855  1  0.38726900  0.31301400  0.85305300  1
  H  856  1  0.46691800  0.31068100  0.85496800  1
  H  869  1  0.56082000  0.35766400  0.39617400  1
  H  870  1  0.43163400  0.28014900  0.41942900  1
  H  871  1  0.43423200  0.35983200  0.42129700  1
  H  872  1  0.43581100  0.14031400  0.42100100  1
  H  873  1  0.56250100  0.13689500  0.39596300  1
  H  874  1  0.56056600  0.21655400  0.39402600  1
  H  887  1  0.93814800  0.64128400  0.89616000  1
  H  888  1  0.06733700  0.71877800  0.91942000  1
  H  889  1  0.06471700  0.63910200  0.92129500  1
  H  890  1  0.06315400  0.85862100  0.92100200  1
  H  891  1  0.93646000  0.86203400  0.89596900  1
  H  892  1  0.93841900  0.78238500  0.89401400  1
  H  905  1  0.60831300  0.68746800  0.14665600  1
  H  906  1  0.53065300  0.81667700  0.16982000  1
  H  907  1  0.61033900  0.81406300  0.17176800  1
  H  908  1  0.39072600  0.81247300  0.17123000  1
  H  909  1  0.38750600  0.68601700  0.14603100  1
  H  910  1  0.46720500  0.68789800  0.14424500  1
  H  923  1  0.89059000  0.31143900  0.64666200  1
  H  924  1  0.96826000  0.18222700  0.66981900  1
  H  925  1  0.88857400  0.18482600  0.67176100  1
  H  926  1  0.10819400  0.18645800  0.67123300  1
  H  927  1  0.11139400  0.31291800  0.64603600  1
  H  928  1  0.03169300  0.31103000  0.64425300  1
  H  933  1  0.48121100  0.50263700  0.10939000  1
  H  934  1  0.51250400  0.50962100  0.09058700  1
  H  937  1  0.51303600  0.45001500  0.06752600  1
  H  938  1  0.48469300  0.39787900  0.07037300  1
  H  939  1  0.46703200  0.52125100  0.06145100  1
  H  940  1  0.40770100  0.52086500  0.06218000  1
  H  943  1  0.39905900  0.39412100  0.07042000  1
  H  944  1  0.36619000  0.44314500  0.06753300  1
  H  946  1  0.44200000  0.38273600  0.09828800  1
  H  947  1  0.44060300  0.42397600  0.11433600  1
  H  949  1  0.36491200  0.50558800  0.08985700  1
  H  950  1  0.39531100  0.49981100  0.10903900  1
  H  955  1  0.89709100  0.37567700  0.60938100  1
  H  956  1  0.86579500  0.36870700  0.59057800  1
  H  959  1  0.86527000  0.42832600  0.56752000  1
  H  960  1  0.89363100  0.48045200  0.57037000  1
  H  961  1  0.91125600  0.35707500  0.56144200  1
  H  962  1  0.97058700  0.35744700  0.56216800  1
  H  965  1  0.97925900  0.48419000  0.57041500  1
  H  966  1  0.01211820  0.43516100  0.56752500  1
  H  968  1  0.93632800  0.49557300  0.59828500  1
  H  969  1  0.93771800  0.45433000  0.61433200  1
  H  971  1  0.01338620  0.37271100  0.58984400  1
  H  972  1  0.98299300  0.37848800  0.60902900  1
  H  977  1  0.62528900  0.23042300  0.35936900  1
  H  978  1  0.61823300  0.26184400  0.34060200  1
  H  981  1  0.67778900  0.26253400  0.31749900  1
  H  982  1  0.72994200  0.23420800  0.32030700  1
  H  983  1  0.60657500  0.21654500  0.31141500  1
  H  984  1  0.60699200  0.15720700  0.31208500  1
  H  987  1  0.73375500  0.14858900  0.32031100  1
  H  988  1  0.68475600  0.11569300  0.31741100  1
  H  990  1  0.74515600  0.19136100  0.34819900  1
  H  991  1  0.70394700  0.18987300  0.36425700  1
  H  993  1  0.62235200  0.11425900  0.33971200  1
  H  994  1  0.62804200  0.14452700  0.35892700  1
  H  999  1  0.75305100  0.64792000  0.85937100  1
  H  1000  1  0.76009700  0.61649600  0.84060400  1
  H  1003  1  0.70053700  0.61581500  0.81750400  1
  H  1004  1  0.64838800  0.64415000  0.82031200  1
  H  1005  1  0.77175700  0.66179100  0.81141700  1
  H  1006  1  0.77134900  0.72113000  0.81208500  1
  H  1009  1  0.64458800  0.72976700  0.82031500  1
  H  1010  1  0.69358900  0.76265700  0.81741300  1
  H  1012  1  0.63319000  0.68700300  0.84820500  1
  H  1013  1  0.67440700  0.68848500  0.86426100  1
  H  1015  1  0.75599900  0.76408600  0.83971200  1
  H  1016  1  0.75031100  0.73382000  0.85892800  1
  H  1021  1  0.89751700  0.50297600  0.38903000  1
  H  1022  1  0.86526400  0.51033400  0.40758300  1
  H  1025  1  0.86336300  0.45096800  0.43073100  1
  H  1026  1  0.89154700  0.39862900  0.42812900  1
  H  1027  1  0.90933100  0.52190200  0.43709800  1
  H  1028  1  0.96869000  0.52121700  0.43679900  1
  H  1031  1  0.97719600  0.39441200  0.42869700  1
  H  1032  1  0.01012920  0.44329400  0.43179900  1
  H  1034  1  0.93556700  0.38309100  0.40055500  1
  H  1035  1  0.93793800  0.42420300  0.38448000  1
  H  1037  1  0.01276720  0.50563800  0.40947500  1
  H  1038  1  0.98334500  0.50004100  0.39007300  1
  H  1043  1  0.48081600  0.37535600  0.88903500  1
  H  1044  1  0.51307700  0.36800600  0.90758500  1
  H  1047  1  0.51496800  0.42737200  0.93073400  1
  H  1048  1  0.48676400  0.47970100  0.92813500  1
  H  1049  1  0.46902100  0.35641900  0.93710100  1
  H  1050  1  0.40966200  0.35708800  0.93680700  1
  H  1053  1  0.40111900  0.48389300  0.92870700  1
  H  1054  1  0.36819900  0.43500200  0.93180900  1
  H  1056  1  0.44273100  0.49523100  0.90056400  1
  H  1057  1  0.44037100  0.45411800  0.88448800  1
  H  1059  1  0.36557100  0.37266000  0.90948500  1
  H  1060  1  0.39498700  0.37827200  0.89008200  1
  H  1065  1  0.75384200  0.23058500  0.13907200  1
  H  1066  1  0.76102300  0.26263500  0.15768500  1
  H  1069  1  0.70137100  0.26444500  0.18070600  1
  H  1070  1  0.64898100  0.23642300  0.17797600  1
  H  1071  1  0.77206900  0.21819300  0.18716500  1
  H  1072  1  0.77119400  0.15884100  0.18677400  1
  H  1075  1  0.64453500  0.15075000  0.17840400  1
  H  1076  1  0.69329600  0.11767500  0.18155200  1
  H  1078  1  0.63370400  0.19275500  0.15031400  1
  H  1079  1  0.67501500  0.19048500  0.13431000  1
  H  1081  1  0.75592100  0.11510800  0.15933100  1
  H  1082  1  0.75066100  0.14474700  0.13996500  1
  H  1087  1  0.62446700  0.64774800  0.63907700  1
  H  1088  1  0.61729600  0.61569800  0.65768800  1
  H  1091  1  0.67694600  0.61390300  0.68070900  1
  H  1092  1  0.72932900  0.64194000  0.67798100  1
  H  1093  1  0.60623600  0.66013700  0.68717000  1
  H  1094  1  0.60709500  0.71948900  0.68677900  1
  H  1097  1  0.73375300  0.72761000  0.67841000  1
  H  1098  1  0.68498600  0.76067500  0.68155700  1
  H  1100  1  0.74459400  0.68561500  0.65031900  1
  H  1101  1  0.70327800  0.68787200  0.63431600  1
  H  1103  1  0.62236000  0.76323000  0.65933800  1
  H  1104  1  0.62762500  0.73359300  0.63997100  1
  H  1109  1  0.25317500  0.64825200  0.63962300  1
  H  1110  1  0.25900000  0.61626400  0.65831100  1
  H  1113  1  0.19914700  0.61682200  0.68128600  1
  H  1114  1  0.14778700  0.64651300  0.67843700  1
  H  1115  1  0.27136800  0.66081900  0.68768700  1
  H  1116  1  0.27253500  0.72015800  0.68713900  1
  H  1119  1  0.14620800  0.73217800  0.67859500  1
  H  1120  1  0.19593000  0.76383300  0.68168200  1
  H  1122  1  0.13422100  0.69026700  0.65059600  1
  H  1123  1  0.17574200  0.69095700  0.63464700  1
  H  1125  1  0.25887800  0.76393400  0.65958600  1
  H  1126  1  0.25281000  0.73418800  0.64027700  1
  H  1131  1  0.12511300  0.23003700  0.13962600  1
  H  1132  1  0.11929500  0.26202000  0.15831500  1
  H  1135  1  0.17915400  0.26145200  0.18128900  1
  H  1136  1  0.23051400  0.23175900  0.17843500  1
  H  1137  1  0.10693300  0.21745500  0.18768900  1
  H  1138  1  0.10576300  0.15811700  0.18713900  1
  H  1141  1  0.23209000  0.14609600  0.17859000  1
  H  1142  1  0.18236800  0.11444200  0.18167800  1
  H  1144  1  0.24406700  0.18801600  0.15059100  1
  H  1145  1  0.20253600  0.18733300  0.13464400  1
  H  1147  1  0.11941700  0.11434700  0.15958300  1
  H  1148  1  0.12547800  0.14410100  0.14027600  1
  H  1153  1  0.12444000  0.64801700  0.85985500  1
  H  1154  1  0.11844300  0.61536900  0.84133400  1
  H  1157  1  0.17829900  0.61488900  0.81839300  1
  H  1158  1  0.22989200  0.64433500  0.82112900  1
  H  1159  1  0.10652700  0.65903300  0.81165800  1
  H  1160  1  0.10573900  0.71839400  0.81192000  1
  H  1163  1  0.23200900  0.73005800  0.82053500  1
  H  1164  1  0.18247900  0.76184600  0.81722800  1
  H  1166  1  0.24357300  0.68894600  0.84872900  1
  H  1167  1  0.20199100  0.69036800  0.86464900  1
  H  1169  1  0.11936300  0.76298800  0.83926400  1
  H  1170  1  0.12506500  0.73389100  0.85872200  1
  H  1175  1  0.25388900  0.23028400  0.35985100  1
  H  1176  1  0.25988200  0.26293000  0.34132900  1
  H  1179  1  0.20003700  0.26338600  0.31838400  1
  H  1180  1  0.14845000  0.23393000  0.32111900  1
  H  1181  1  0.27182200  0.21925500  0.31165700  1
  H  1182  1  0.27262300  0.15989600  0.31192000  1
  H  1185  1  0.14635300  0.14821000  0.32052800  1
  H  1186  1  0.19588700  0.11642700  0.31722400  1
  H  1188  1  0.13476600  0.18932500  0.34872100  1
  H  1189  1  0.17634700  0.18791500  0.36464100  1
  H  1191  1  0.25899300  0.11530400  0.33926400  1
  H  1192  1  0.25328000  0.14440500  0.35872100  1
  H  1197  1  0.98261500  0.00398424  0.60953800  1
  H  1198  1  0.01327820  0.01092820  0.59045800  1
  H  1201  1  0.01394520  0.94986100  0.56781800  1
  H  1202  1  0.98403500  0.89871800  0.57096700  1
  H  1203  1  0.97078700  0.02328320  0.56238800  1
  H  1204  1  0.91153000  0.02340520  0.56193700  1
  H  1207  1  0.89841300  0.89754700  0.57062900  1
  H  1208  1  0.86701600  0.94748300  0.56764100  1
  H  1210  1  0.94116500  0.88509700  0.59863100  1
  H  1211  1  0.94053600  0.92641800  0.61464800  1
  H  1213  1  0.86557800  0.00874924  0.59048700  1
  H  1214  1  0.89643800  0.00343224  0.60945700  1
  H  1219  1  0.39569700  0.87433200  0.10953400  1
  H  1220  1  0.36503000  0.86738800  0.09045400  1
  H  1223  1  0.36436400  0.92845100  0.06781500  1
  H  1224  1  0.39427300  0.97959800  0.07096200  1
  H  1225  1  0.40752500  0.85503200  0.06238200  1
  H  1226  1  0.46678600  0.85491400  0.06193300  1
  H  1229  1  0.47989300  0.98076800  0.07062400  1
  H  1230  1  0.51129400  0.93083200  0.06763500  1
  H  1232  1  0.43714700  0.99321800  0.09862600  1
  H  1233  1  0.43777600  0.95189700  0.11464400  1
  H  1235  1  0.51273200  0.86956300  0.09048200  1
  H  1236  1  0.48187400  0.87487900  0.10945200  1
  H  1241  1  0.39451700  0.00340924  0.88985800  1
  H  1242  1  0.36481700  0.00975724  0.90916300  1
  H  1245  1  0.36463100  0.94726300  0.93146800  1
  H  1246  1  0.39583900  0.89724600  0.92834800  1
  H  1247  1  0.40901300  0.02375320  0.93663300  1
  H  1248  1  0.46829800  0.02188320  0.93719500  1
  H  1251  1  0.48146500  0.89814300  0.92797800  1
  H  1252  1  0.51157200  0.94916400  0.93109700  1
  H  1254  1  0.43811100  0.88483000  0.90032900  1
  H  1255  1  0.43763700  0.92623200  0.88434100  1
  H  1257  1  0.51251500  0.00939924  0.90794100  1
  H  1258  1  0.48058200  0.00359124  0.88923300  1
  H  1263  1  0.98380900  0.87492000  0.38986300  1
  H  1264  1  0.01350820  0.86858800  0.40916800  1
  H  1267  1  0.01368420  0.93109300  0.43146900  1
  H  1268  1  0.98246900  0.98109900  0.42834600  1
  H  1269  1  0.96931900  0.85459600  0.43664000  1
  H  1270  1  0.91003100  0.85645600  0.43720200  1
  H  1273  1  0.89684400  0.98018600  0.42798000  1
  H  1274  1  0.86674500  0.92916100  0.43110100  1
  H  1276  1  0.94019100  0.99349500  0.40032800  1
  H  1277  1  0.94066800  0.95208600  0.38434200  1
  H  1279  1  0.86581200  0.86891700  0.40794900  1
  H  1280  1  0.89774000  0.87472000  0.38924000  1
  H  1293  1  0.50489300  0.42044800  0.04067700  1
  H  1294  1  0.37033000  0.46556600  0.01055700  1
  H  1295  1  0.37166600  0.47249800  0.04078300  1
  H  1296  1  0.37489900  0.40565400  0.95864900  1
  H  1297  1  0.50820600  0.45742700  0.95748500  1
  H  1298  1  0.50674000  0.46242700  0.98760000  1
  H  1311  1  0.87344200  0.45796100  0.54067400  1
  H  1312  1  0.00796824  0.41273300  0.51055300  1
  H  1313  1  0.00661924  0.40577600  0.54077400  1
  H  1314  1  0.00344624  0.47264500  0.45864000  1
  H  1315  1  0.87011400  0.42094200  0.45748300  1
  H  1316  1  0.87157500  0.41597700  0.48759700  1
  H  1329  1  0.70711500  0.25452100  0.29059000  1
  H  1330  1  0.66250200  0.11977500  0.26047800  1
  H  1331  1  0.65544500  0.12116200  0.29068900  1
  H  1332  1  0.72200800  0.12410100  0.20854000  1
  H  1333  1  0.67119400  0.25776200  0.20736700  1
  H  1334  1  0.66605400  0.25633400  0.23746400  1
  H  1347  1  0.67119200  0.62382800  0.79059600  1
  H  1348  1  0.71581300  0.75856300  0.76048000  1
  H  1349  1  0.72289200  0.75717900  0.79069000  1
  H  1350  1  0.65627800  0.75423800  0.70854500  1
  H  1351  1  0.70711200  0.62058500  0.70737400  1
  H  1352  1  0.71224000  0.62201000  0.73747200  1
  H  1365  1  0.17029600  0.62498400  0.70823500  1
  H  1366  1  0.21692100  0.75863300  0.73861400  1
  H  1367  1  0.22431800  0.75740800  0.70841900  1
  H  1368  1  0.15460300  0.75441600  0.79024700  1
  H  1369  1  0.20790700  0.62174400  0.79167700  1
  H  1370  1  0.21315300  0.62295200  0.76155600  1
  H  1383  1  0.20806900  0.25326300  0.20823100  1
  H  1384  1  0.16137700  0.11963300  0.23860700  1
  H  1385  1  0.15395300  0.12087500  0.20841800  1
  H  1386  1  0.22378000  0.12385100  0.29024400  1
  H  1387  1  0.17041500  0.25650000  0.29166800  1
  H  1388  1  0.16516200  0.25527900  0.26154800  1
  H  1401  1  0.00246924  0.91402600  0.54143700  1
  H  1402  1  0.87538700  0.97438600  0.51060100  1
  H  1403  1  0.87585700  0.98038900  0.54072400  1
  H  1404  1  0.87843400  0.96519600  0.45751900  1
  H  1405  1  0.00440324  0.89764200  0.45828500  1
  H  1406  1  0.00483624  0.90360500  0.48841800  1
  H  1419  1  0.37581300  0.96425200  0.04143100  1
  H  1420  1  0.50293200  0.90395700  0.01059700  1
  H  1421  1  0.50246100  0.89795000  0.04072000  1
  H  1422  1  0.49986500  0.91311300  0.95751500  1
  H  1423  1  0.37391500  0.98070400  0.95828300  1
  H  1424  1  0.37347200  0.97472000  0.98841500  1
  H  1437  1  0.24033600  0.30481600  0.16782700  1
  H  1438  1  0.22303600  0.31235800  0.10682300  1
  H  1439  1  0.18258700  0.25626000  0.12199800  1
  H  1440  1  0.32491600  0.38257700  0.08096700  1
  H  1441  1  0.37095900  0.44276200  0.12672300  1
  H  1442  1  0.31368400  0.40366900  0.14171400  1
  H  1455  1  0.13797900  0.57344800  0.66782500  1
  H  1456  1  0.15524500  0.56597100  0.60682000  1
  H  1457  1  0.19566300  0.62207000  0.62199400  1
  H  1458  1  0.05340220  0.49572800  0.58096200  1
  H  1459  1  0.00733224  0.43556000  0.62671600  1
  H  1460  1  0.06460420  0.47463600  0.64170800  1
  H  1473  1  0.82329700  0.98977500  0.41757900  1
  H  1474  1  0.81546700  0.97248800  0.35657600  1
  H  1475  1  0.87179100  0.93228300  0.37169000  1
  H  1476  1  0.74529100  0.07439620  0.33080200  1
  H  1477  1  0.68509000  0.12021500  0.37659200  1
  H  1478  1  0.72411100  0.06284220  0.39154100  1
  H  1491  1  0.55502600  0.88854400  0.91757900  1
  H  1492  1  0.56285400  0.90583100  0.85657700  1
  H  1493  1  0.50651900  0.94601900  0.87168400  1
  H  1494  1  0.63304900  0.80395300  0.83080800  1
  H  1495  1  0.69330300  0.75816100  0.87659200  1
  H  1496  1  0.65426600  0.81553800  0.89154600  1
  H  1509  1  0.13977100  0.30691600  0.33184800  1
  H  1510  1  0.15499200  0.31190800  0.39296800  1
  H  1511  1  0.19592400  0.25628700  0.37765000  1
  H  1512  1  0.05169120  0.38212700  0.41852100  1
  H  1513  1  0.00811724  0.44324900  0.37259900  1
  H  1514  1  0.06604520  0.40449800  0.35792800  1
  H  1527  1  0.23855000  0.57135600  0.83186200  1
  H  1528  1  0.22334700  0.56642300  0.89298100  1
  H  1529  1  0.18243500  0.62203500  0.87766100  1
  H  1530  1  0.32662800  0.49617500  0.91853200  1
  H  1531  1  0.37022200  0.43508700  0.87260800  1
  H  1532  1  0.31229400  0.47382100  0.85794100  1
  H  1545  1  0.55338100  0.99212200  0.08126500  1
  H  1546  1  0.56286900  0.97314100  0.14216700  1
  H  1547  1  0.50700000  0.93234100  0.12703500  1
  H  1548  1  0.63214000  0.07645220  0.16802400  1
  H  1549  1  0.69377900  0.12056000  0.12228300  1
  H  1550  1  0.65414000  0.06360020  0.10735700  1
  H  1563  1  0.82491300  0.88619600  0.58126800  1
  H  1564  1  0.81543600  0.90519100  0.64217100  1
  H  1565  1  0.87131100  0.94597100  0.62704200  1
  H  1566  1  0.74614900  0.80190000  0.66802600  1
  H  1567  1  0.68446500  0.75781200  0.62229100  1
  H  1568  1  0.72411400  0.81477300  0.60736000  1
  H  1581  1  0.64002400  0.57077800  0.83068200  1
  H  1582  1  0.65730800  0.56194800  0.89164700  1
  H  1583  1  0.69615200  0.61960700  0.87674800  1
  H  1584  1  0.55990800  0.48723600  0.91750100  1
  H  1585  1  0.50864100  0.43281400  0.87151600  1
  H  1586  1  0.56572800  0.47208900  0.85640800  1
  H  1599  1  0.73830900  0.30757900  0.33068000  1
  H  1600  1  0.72104200  0.31636900  0.39164300  1
  H  1601  1  0.68222400  0.25871500  0.37674600  1
  H  1602  1  0.81839600  0.39111700  0.41749900  1
  H  1603  1  0.86970800  0.44548600  0.37151100  1
  H  1604  1  0.81261900  0.40623300  0.35640600  1
  H  1617  1  0.05774120  0.88960600  0.58135600  1
  H  1618  1  0.06605820  0.90804900  0.64229600  1
  H  1619  1  0.00927024  0.94750000  0.62717600  1
  H  1620  1  0.13609500  0.80637200  0.66819700  1
  H  1621  1  0.19669500  0.76035200  0.62251500  1
  H  1622  1  0.15792100  0.81778700  0.60749100  1
  H  1635  1  0.32055700  0.98870900  0.08135000  1
  H  1636  1  0.31224000  0.97025600  0.14228900  1
  H  1637  1  0.36903800  0.93081900  0.12717100  1
  H  1638  1  0.24220700  0.07191020  0.16818700  1
  H  1639  1  0.18155600  0.11791900  0.12251300  1
  H  1640  1  0.22033700  0.06047820  0.10748200  1
  H  1653  1  0.73657500  0.56872100  0.66745600  1
  H  1654  1  0.72084800  0.56242300  0.60638900  1
  H  1655  1  0.68160000  0.61955300  0.62149200  1
  H  1656  1  0.82021900  0.48885400  0.58068700  1
  H  1657  1  0.86877100  0.43246900  0.62675300  1
  H  1658  1  0.81091800  0.47106500  0.64162100  1
  H  1671  1  0.64175800  0.30964200  0.16745100  1
  H  1672  1  0.65745400  0.31589900  0.10638300  1
  H  1673  1  0.69667200  0.25876600  0.12148600  1
  H  1674  1  0.55811600  0.38950100  0.08068500  1
  H  1675  1  0.50952800  0.44582700  0.12675700  1
  H  1676  1  0.56739700  0.40726100  0.14162000  1
  H  1689  1  0.32205500  0.88674400  0.91772100  1
  H  1690  1  0.31219200  0.90738600  0.85690700  1
  H  1691  1  0.36861200  0.94719900  0.87210000  1
  H  1692  1  0.24312700  0.80426100  0.83085700  1
  H  1693  1  0.18087900  0.76002800  0.87646200  1
  H  1694  1  0.22018800  0.81705600  0.89147500  1
  H  1707  1  0.05627020  0.99159800  0.41772100  1
  H  1708  1  0.06612320  0.97092900  0.35690900  1
  H  1709  1  0.00969624  0.93113700  0.37210100  1
  H  1710  1  0.13521900  0.07402020  0.33085700  1
  H  1711  1  0.19750700  0.11824000  0.37645500  1
  H  1712  1  0.15818100  0.06121220  0.39147500  1
  H  1725  1  0.37872500  0.79667800  0.10318300  1
  H  1726  1  0.50757000  0.71958400  0.07949100  1
  H  1727  1  0.50484000  0.79933700  0.07772100  1
  H  1728  1  0.50185200  0.57938500  0.07720000  1
  H  1729  1  0.37678300  0.57644700  0.10337400  1
  H  1730  1  0.37940500  0.65601700  0.10547200  1
  H  1743  1  0.99957700  0.08164420  0.60318500  1
  H  1744  1  0.87073300  0.15871900  0.57948200  1
  H  1745  1  0.87347200  0.07897220  0.57771500  1
  H  1746  1  0.87644200  0.29892700  0.57719200  1
  H  1747  1  0.00152124  0.30186300  0.60335700  1
  H  1748  1  0.99889000  0.22229900  0.60546400  1
  H  1761  1  0.33062600  0.12739600  0.35218200  1
  H  1762  1  0.40861400  0.25706100  0.32953800  1
  H  1763  1  0.32890100  0.25483600  0.32768700  1
  H  1764  1  0.54849600  0.25132500  0.32731000  1
  H  1765  1  0.55138900  0.12563000  0.35305500  1
  H  1766  1  0.47174100  0.12796100  0.35497400  1
  H  1779  1  0.04772320  0.75091600  0.85218000  1
  H  1780  1  0.96972100  0.62125900  0.82953200  1
  H  1781  1  0.04943520  0.62346800  0.82768600  1
  H  1782  1  0.82983800  0.62700900  0.82731100  1
  H  1783  1  0.82696300  0.75270800  0.85305300  1
  H  1784  1  0.90661200  0.75037500  0.85496800  1
  H  1797  1  0.00051424  0.79735800  0.39617400  1
  H  1798  1  0.87132800  0.71984300  0.41942900  1
  H  1799  1  0.87392600  0.79952600  0.42129700  1
  H  1800  1  0.87550500  0.58000800  0.42100100  1
  H  1801  1  0.00219524  0.57658900  0.39596300  1
  H  1802  1  0.00026024  0.65624800  0.39402600  1
  H  1815  1  0.37784200  0.08097820  0.89616000  1
  H  1816  1  0.50703100  0.15847200  0.91942000  1
  H  1817  1  0.50441100  0.07879620  0.92129500  1
  H  1818  1  0.50284800  0.29831500  0.92100200  1
  H  1819  1  0.37615400  0.30172800  0.89596900  1
  H  1820  1  0.37811300  0.22207900  0.89401400  1
  H  1833  1  0.04800720  0.12716200  0.14665600  1
  H  1834  1  0.97034700  0.25637100  0.16982000  1
  H  1835  1  0.05003320  0.25375700  0.17176800  1
  H  1836  1  0.83042000  0.25216700  0.17123000  1
  H  1837  1  0.82720000  0.12571100  0.14603100  1
  H  1838  1  0.90689900  0.12759200  0.14424500  1
  H  1851  1  0.33028400  0.75113300  0.64666200  1
  H  1852  1  0.40795400  0.62192100  0.66981900  1
  H  1853  1  0.32826800  0.62452000  0.67176100  1
  H  1854  1  0.54788800  0.62615200  0.67123300  1
  H  1855  1  0.55108800  0.75261200  0.64603600  1
  H  1856  1  0.47138700  0.75072400  0.64425300  1
  C  1  1  0.99874500  0.07674000  0.08741000  1
  C  2  1  0.99830500  0.06594300  0.06778900  1
  C  3  1  0.04195000  0.05489400  0.09577500  1
  C  4  1  0.04468500  0.00231700  0.09292700  1
  C  7  1  0.04323100  0.99449700  0.07304300  1
  C  8  1  0.99964700  0.01388300  0.06402700  1
  C  13  1  0.95803600  0.99080600  0.07300200  1
  C  14  1  0.95631400  0.99944100  0.09283300  1
  C  17  1  0.00112700  0.97961500  0.10052500  1
  C  20  1  0.95633100  0.05222900  0.09542300  1
  C  23  1  0.50016500  0.92218400  0.58739900  1
  C  24  1  0.50060200  0.93299000  0.56778000  1
  C  25  1  0.45696400  0.94403700  0.59576700  1
  C  26  1  0.45424100  0.99661700  0.59292200  1
  C  29  1  0.45569200  0.00444600  0.57303800  1
  C  30  1  0.49927300  0.98505000  0.56402100  1
  C  35  1  0.54089100  0.00811500  0.57299500  1
  C  36  1  0.54261300  0.99947400  0.59282600  1
  C  39  1  0.49780500  0.01930600  0.60052000  1
  C  42  1  0.54258600  0.94668800  0.59541300  1
  C  45  1  0.17174800  0.74809200  0.33734500  1
  C  46  1  0.18252000  0.74778100  0.31772100  1
  C  47  1  0.19359800  0.79126000  0.34575000  1
  C  48  1  0.24617000  0.79406400  0.34288300  1
  C  51  1  0.25394800  0.79271100  0.32299100  1
  C  52  1  0.23456800  0.74915700  0.31394600  1
  C  57  1  0.25768400  0.70752900  0.32289500  1
  C  58  1  0.24905400  0.70570900  0.34272400  1
  C  61  1  0.26889300  0.75047300  0.35044500  1
  C  64  1  0.19627500  0.70565100  0.34531500  1
  C  67  1  0.32720500  0.25086100  0.83734600  1
  C  68  1  0.31642900  0.25117100  0.81772300  1
  C  69  1  0.30535100  0.20769500  0.84575300  1
  C  70  1  0.25277800  0.20490200  0.84288700  1
  C  73  1  0.24499600  0.20625300  0.82299400  1
  C  74  1  0.26438000  0.24980300  0.81395000  1
  C  79  1  0.24127200  0.29143700  0.82289700  1
  C  80  1  0.24990700  0.29325800  0.84272600  1
  C  83  1  0.23006600  0.24849600  0.85044800  1
  C  86  1  0.30268600  0.29330800  0.84531600  1
  C  89  1  0.49948900  0.07712700  0.41134700  1
  C  90  1  0.49891100  0.06642600  0.43097800  1
  C  91  1  0.45663200  0.05541700  0.40265500  1
  C  92  1  0.45349000  0.00289000  0.40554900  1
  C  95  1  0.45395400  0.99522000  0.42544300  1
  C  96  1  0.49715200  0.01439900  0.43476500  1
  C  101  1  0.53912200  0.99108000  0.42610800  1
  C  102  1  0.54183200  0.99963600  0.40628400  1
  C  105  1  0.49732100  0.97994600  0.39829100  1
  C  108  1  0.54220000  0.05242100  0.40367600  1
  C  111  1  0.99946500  0.92180500  0.91135200  1
  C  112  1  0.00004900  0.93250300  0.93098400  1
  C  113  1  0.04231300  0.94352600  0.90266000  1
  C  114  1  0.04544200  0.99605600  0.90555500  1
  C  117  1  0.04498300  0.00372000  0.92544900  1
  C  118  1  0.00179400  0.98452900  0.93477300  1
  C  123  1  0.95981500  0.00783700  0.92611700  1
  C  124  1  0.95710200  0.99928200  0.90629300  1
  C  127  1  0.00160000  0.01898600  0.89829900  1
  C  130  1  0.95674700  0.94649900  0.90368500  1
  C  133  1  0.32758000  0.74895400  0.16135400  1
  C  134  1  0.31658800  0.74934300  0.18096600  1
  C  135  1  0.30610300  0.79196000  0.15268400  1
  C  136  1  0.25355000  0.79521400  0.15548100  1
  C  139  1  0.24560300  0.79455800  0.17535400  1
  C  140  1  0.26451800  0.75122100  0.18465600  1
  C  145  1  0.24123100  0.70938200  0.17588000  1
  C  146  1  0.25004500  0.70686900  0.15605900  1
  C  149  1  0.23058600  0.75153500  0.14811500  1
  C  152  1  0.30287000  0.70638900  0.15355500  1
  C  155  1  0.17132900  0.24998800  0.66135900  1
  C  156  1  0.18232000  0.24960100  0.68097200  1
  C  157  1  0.19281800  0.20698700  0.65268900  1
  C  158  1  0.24537300  0.20375000  0.65548600  1
  C  161  1  0.25331900  0.20440800  0.67535900  1
  C  162  1  0.23439200  0.24773900  0.68466100  1
  C  167  1  0.25766800  0.28958300  0.67588600  1
  C  168  1  0.24885500  0.29209700  0.65606500  1
  C  171  1  0.26832200  0.24743500  0.64812000  1
  C  174  1  0.19603000  0.29256400  0.65356200  1
  C  177  1  0.82806900  0.25037400  0.66180500  1
  C  178  1  0.81693800  0.25068900  0.68139700  1
  C  179  1  0.80522500  0.20797800  0.65322000  1
  C  180  1  0.75256700  0.20655000  0.65595500  1
  C  183  1  0.74447000  0.20774800  0.67583800  1
  C  184  1  0.76481400  0.25064300  0.68502900  1
  C  189  1  0.74296100  0.29300000  0.67610800  1
  C  190  1  0.75203600  0.29493700  0.65631000  1
  C  193  1  0.73115700  0.25084300  0.64844600  1
  C  196  1  0.80487000  0.29362900  0.65386300  1
  C  199  1  0.67083800  0.74851800  0.16180500  1
  C  200  1  0.68197600  0.74819700  0.18139700  1
  C  201  1  0.69368200  0.79091800  0.15322100  1
  C  202  1  0.74634000  0.79234600  0.15595600  1
  C  205  1  0.75444100  0.79113800  0.17583700  1
  C  206  1  0.73409600  0.74824100  0.18502800  1
  C  211  1  0.75594900  0.70588800  0.17610500  1
  C  212  1  0.74686800  0.70395700  0.15630600  1
  C  215  1  0.76774300  0.74805500  0.14844400  1
  C  218  1  0.69403300  0.70526600  0.15386000  1
  C  221  1  0.67042200  0.24939400  0.83741300  1
  C  222  1  0.68170200  0.24901800  0.81782600  1
  C  223  1  0.69298100  0.20719900  0.84625900  1
  C  224  1  0.74562000  0.20538700  0.84355800  1
  C  227  1  0.75380800  0.20590000  0.82369100  1
  C  228  1  0.73384600  0.24855500  0.81425100  1
  C  233  1  0.75585800  0.29114900  0.82298300  1
  C  234  1  0.74665100  0.29376700  0.84277400  1
  C  237  1  0.76724200  0.24980400  0.85085700  1
  C  240  1  0.69377300  0.29281500  0.84515900  1
  C  243  1  0.82853200  0.74951300  0.33741200  1
  C  244  1  0.81726300  0.74988100  0.31782500  1
  C  245  1  0.80595900  0.79171000  0.34625600  1
  C  246  1  0.75332400  0.79350600  0.34354900  1
  C  249  1  0.74514300  0.79298800  0.32368200  1
  C  250  1  0.76512200  0.75033100  0.31424500  1
  C  255  1  0.74311300  0.70773500  0.32297800  1
  C  256  1  0.75231000  0.70512700  0.34277100  1
  C  259  1  0.73171200  0.74908600  0.35084900  1
  C  262  1  0.80518800  0.70608800  0.34515800  1
  C  265  1  0.49974600  0.57906000  0.58771200  1
  C  266  1  0.50101400  0.56814600  0.56811700  1
  C  267  1  0.54287700  0.55640200  0.59591500  1
  C  268  1  0.54500100  0.50378800  0.59326300  1
  C  271  1  0.54367500  0.49547400  0.57343300  1
  C  272  1  0.50082800  0.51601100  0.56434400  1
  C  277  1  0.45834400  0.49423300  0.57324400  1
  C  278  1  0.45654400  0.50265800  0.59313600  1
  C  281  1  0.50098400  0.48200600  0.60084100  1
  C  284  1  0.45714600  0.55542100  0.59586900  1
  C  287  1  0.99917400  0.41986700  0.08770800  1
  C  288  1  0.99790900  0.43078200  0.06811200  1
  C  289  1  0.95604700  0.44252500  0.09591100  1
  C  290  1  0.95392600  0.49513900  0.09325800  1
  C  293  1  0.95524500  0.50345000  0.07342800  1
  C  294  1  0.99809200  0.48291600  0.06433900  1
  C  299  1  0.04057700  0.50469400  0.07323900  1
  C  300  1  0.04237800  0.49626900  0.09313200  1
  C  303  1  0.99794300  0.51692100  0.10083700  1
  C  306  1  0.04177600  0.44350600  0.09586400  1
  C  309  1  0.99904900  0.57869800  0.91135600  1
  C  310  1  0.99887300  0.56767500  0.93094200  1
  C  311  1  0.95567500  0.55558700  0.90345300  1
  C  312  1  0.95413900  0.50279000  0.90597100  1
  C  315  1  0.95587800  0.49397600  0.92581300  1
  C  316  1  0.99845000  0.51553800  0.93465900  1
  C  321  1  0.04122800  0.49489300  0.92550000  1
  C  322  1  0.04260300  0.50308100  0.90563200  1
  C  325  1  0.99825100  0.48175600  0.89814400  1
  C  328  1  0.04139300  0.55570200  0.90283500  1
  C  331  1  0.49989100  0.42024300  0.41136200  1
  C  332  1  0.50006400  0.43127900  0.43094900  1
  C  333  1  0.54325900  0.44336000  0.40345700  1
  C  334  1  0.54478400  0.49615700  0.40597300  1
  C  337  1  0.54304900  0.50498200  0.42581300  1
  C  338  1  0.50048000  0.48341300  0.43466200  1
  C  343  1  0.45769800  0.50404800  0.42550300  1
  C  344  1  0.45632100  0.49585300  0.40563500  1
  C  347  1  0.50066900  0.51718200  0.39814600  1
  C  350  1  0.45753900  0.44322800  0.40284100  1
  C  353  1  0.00169200  0.99160100  0.95405900  1
  C  354  1  0.03943800  0.00805300  0.96343400  1
  C  355  1  0.03907600  0.01082100  0.98134600  1
  C  356  1  0.99986100  0.99824400  0.99040000  1
  C  358  1  0.96363300  0.97911700  0.96408800  1
  C  359  1  0.99759500  0.00040000  0.00840100  1
  C  360  1  0.95873900  0.01550900  0.01710700  1
  C  361  1  0.95986900  0.01945100  0.03499300  1
  C  362  1  0.99838600  0.00673500  0.04475300  1
  C  363  1  0.03564400  0.99040400  0.03510400  1
  C  371  1  0.49726000  0.00732600  0.45405200  1
  C  372  1  0.45950400  0.99091100  0.46343000  1
  C  373  1  0.45984600  0.98820600  0.48134400  1
  C  374  1  0.49907600  0.00074200  0.49039700  1
  C  376  1  0.53531700  0.01981400  0.46408100  1
  C  377  1  0.50134600  0.99860300  0.50839700  1
  C  378  1  0.54020800  0.98350100  0.51710300  1
  C  379  1  0.53905800  0.97950600  0.53498700  1
  C  380  1  0.50053400  0.99220300  0.54474600  1
  C  381  1  0.46329900  0.00860600  0.53510100  1
  C  389  1  0.25719100  0.75106800  0.20393800  1
  C  390  1  0.24092900  0.78890900  0.21331100  1
  C  391  1  0.23811700  0.78858400  0.23122300  1
  C  392  1  0.25038200  0.74929600  0.24029400  1
  C  394  1  0.26934800  0.71292700  0.21397700  1
  C  395  1  0.24815100  0.74708700  0.25830500  1
  C  396  1  0.23314700  0.70820500  0.26702000  1
  C  397  1  0.22909700  0.70937200  0.28490400  1
  C  398  1  0.24168500  0.74793000  0.29466600  1
  C  399  1  0.25790300  0.78523300  0.28501500  1
  C  407  1  0.24172600  0.24788800  0.70394300  1
  C  408  1  0.25795800  0.21004000  0.71331800  1
  C  409  1  0.26079000  0.21037000  0.73122900  1
  C  410  1  0.24851900  0.24965700  0.74029900  1
  C  412  1  0.22955000  0.28602400  0.71398200  1
  C  413  1  0.25076000  0.25187100  0.75831000  1
  C  414  1  0.26577900  0.29075000  0.76702300  1
  C  415  1  0.26984500  0.28957900  0.78490700  1
  C  416  1  0.25725500  0.25102400  0.79467000  1
  C  417  1  0.24102000  0.21372800  0.78502000  1
  C  425  1  0.74136500  0.24863000  0.79498100  1
  C  426  1  0.75829300  0.21096400  0.78567600  1
  C  427  1  0.76120200  0.21115300  0.76776100  1
  C  428  1  0.74830800  0.25014600  0.75863900  1
  C  430  1  0.72851200  0.28641900  0.78487400  1
  C  431  1  0.75073000  0.25236100  0.74064400  1
  C  432  1  0.76652900  0.29104900  0.73201200  1
  C  433  1  0.77070900  0.28999300  0.71413500  1
  C  434  1  0.75746800  0.25179200  0.70429700  1
  C  435  1  0.74056000  0.21465600  0.71387500  1
  C  443  1  0.75762300  0.75024600  0.29497500  1
  C  444  1  0.74066500  0.78790100  0.28566800  1
  C  445  1  0.73778600  0.78771500  0.26775300  1
  C  446  1  0.75066300  0.74871400  0.25863400  1
  C  448  1  0.77047600  0.71245600  0.28486900  1
  C  449  1  0.74824800  0.74649600  0.24063700  1
  C  450  1  0.73247300  0.70779600  0.23200700  1
  C  451  1  0.72823800  0.70887500  0.21413300  1
  C  452  1  0.74144900  0.74709100  0.20429600  1
  C  453  1  0.75841500  0.78420400  0.21387000  1
  C  461  1  0.50164400  0.49081700  0.45392300  1
  C  462  1  0.53802300  0.47398700  0.46392900  1
  C  463  1  0.53839900  0.47724000  0.48183900  1
  C  464  1  0.50177200  0.49781100  0.49043100  1
  C  466  1  0.46651500  0.51211800  0.46330400  1
  C  467  1  0.49936000  0.50138000  0.50856300  1
  C  468  1  0.46259900  0.52165300  0.51716900  1
  C  469  1  0.46302800  0.52496800  0.53507800  1
  C  470  1  0.49964100  0.50858700  0.54507500  1
  C  471  1  0.53486400  0.48749200  0.53567400  1
  C  479  1  0.99729700  0.50815800  0.95392100  1
  C  480  1  0.96091700  0.52498800  0.96392600  1
  C  481  1  0.96052800  0.52170700  0.98183500  1
  C  482  1  0.99714500  0.50111900  0.99042700  1
  C  484  1  0.03240300  0.48681600  0.96330000  1
  C  485  1  0.99955000  0.49754100  0.00855800  1
  C  486  1  0.03632400  0.47728400  0.01716500  1
  C  487  1  0.03589100  0.47396600  0.03507400  1
  C  488  1  0.99927200  0.49033700  0.04507000  1
  C  489  1  0.96403600  0.51140800  0.03566900  1
  C  497  1  0.91600800  0.97794700  0.10187400  1
  C  498  1  0.90976100  0.98337200  0.11974400  1
  C  499  1  0.87582300  0.96019400  0.12875700  1
  C  500  1  0.84660700  0.93041600  0.11999500  1
  C  502  1  0.88401200  0.94944500  0.09371100  1
  C  503  1  0.81602100  0.90093600  0.12856900  1
  C  504  1  0.78628800  0.87163200  0.11982500  1
  C  505  1  0.76234100  0.83840200  0.12893400  1
  C  506  1  0.76708300  0.83294300  0.14686700  1
  C  507  1  0.79497400  0.86548400  0.15501400  1
  C  515  1  0.58293300  0.02094600  0.60186500  1
  C  516  1  0.58919700  0.01549200  0.61973400  1
  C  517  1  0.62315500  0.03864500  0.62874500  1
  C  518  1  0.65236700  0.06843800  0.61998900  1
  C  520  1  0.61493200  0.04944600  0.59370500  1
  C  521  1  0.68292300  0.09794300  0.62856600  1
  C  522  1  0.71266600  0.12723900  0.61982300  1
  C  523  1  0.73659900  0.16047900  0.62893300  1
  C  524  1  0.73183000  0.16595100  0.64686400  1
  C  525  1  0.70396000  0.13339200  0.65501200  1
  C  533  1  0.27051500  0.66535800  0.35173200  1
  C  534  1  0.26503400  0.65900700  0.36959500  1
  C  535  1  0.28816600  0.62500100  0.37858300  1
  C  536  1  0.31796600  0.59586300  0.36979900  1
  C  538  1  0.29906900  0.63345400  0.34354900  1
  C  539  1  0.34746300  0.56530100  0.37835700  1
  C  540  1  0.37679400  0.53566900  0.36958000  1
  C  541  1  0.41018000  0.51187100  0.37865400  1
  C  542  1  0.41572100  0.51663400  0.39658200  1
  C  543  1  0.38314900  0.54440500  0.40476700  1
  C  551  1  0.22844400  0.33360200  0.85173700  1
  C  552  1  0.23391400  0.33994400  0.86960100  1
  C  553  1  0.21079700  0.37395600  0.87858900  1
  C  554  1  0.18098900  0.40308400  0.86980600  1
  C  556  1  0.19988200  0.36550400  0.84355500  1
  C  557  1  0.15147800  0.43364300  0.87835800  1
  C  558  1  0.12213500  0.46326200  0.86958000  1
  C  559  1  0.08873500  0.48704600  0.87865300  1
  C  560  1  0.08320100  0.48229000  0.89658000  1
  C  561  1  0.11577400  0.45452500  0.90476700  1
  C  569  1  0.58244600  0.97801500  0.39749600  1
  C  570  1  0.58954800  0.98372400  0.37968800  1
  C  571  1  0.62389200  0.96071400  0.37085900  1
  C  572  1  0.65260700  0.93068700  0.37973300  1
  C  574  1  0.61391400  0.94921800  0.40580300  1
  C  575  1  0.68349100  0.90141300  0.37122000  1
  C  576  1  0.71282900  0.87168000  0.37994900  1
  C  577  1  0.73702200  0.83874700  0.37076200  1
  C  578  1  0.73273700  0.83394400  0.35278500  1
  C  579  1  0.70534400  0.86698500  0.34468600  1
  C  587  1  0.91647100  0.02088100  0.89750900  1
  C  588  1  0.90935100  0.01514800  0.87970300  1
  C  589  1  0.87498100  0.03813200  0.87087700  1
  C  590  1  0.84627200  0.06817200  0.87974900  1
  C  592  1  0.88499600  0.04967300  0.90581700  1
  C  593  1  0.81541300  0.09747000  0.87123300  1
  C  594  1  0.78606100  0.12719000  0.87995900  1
  C  595  1  0.76187500  0.16012600  0.87077100  1
  C  596  1  0.76617400  0.16493300  0.85279400  1
  C  597  1  0.79358000  0.13189700  0.84469700  1
  C  605  1  0.22833100  0.66650800  0.14712100  1
  C  606  1  0.23400600  0.65977400  0.12928200  1
  C  607  1  0.21045300  0.62605000  0.12029900  1
  C  608  1  0.18007900  0.59747000  0.12905800  1
  C  610  1  0.19913800  0.63516800  0.15529300  1
  C  611  1  0.15053000  0.56700600  0.12045400  1
  C  612  1  0.12178900  0.53671800  0.12918200  1
  C  613  1  0.08872000  0.51251400  0.12008500  1
  C  614  1  0.08277800  0.51756700  0.10217900  1
  C  615  1  0.11457900  0.54632300  0.09404600  1
  C  623  1  0.27056800  0.33245100  0.64712400  1
  C  624  1  0.26490400  0.33917700  0.62928500  1
  C  625  1  0.28843800  0.37290800  0.62030100  1
  C  626  1  0.31882000  0.40148100  0.62905900  1
  C  628  1  0.29976300  0.36379300  0.65529600  1
  C  629  1  0.34837600  0.43194200  0.62045800  1
  C  630  1  0.37712900  0.46222300  0.62918500  1
  C  631  1  0.41020700  0.48641000  0.62008900  1
  C  632  1  0.41614300  0.48136000  0.60218300  1
  C  633  1  0.38434000  0.45261100  0.59405000  1
  C  641  1  0.08654400  0.01580000  0.89645900  1
  C  642  1  0.09155300  0.01156600  0.87849300  1
  C  643  1  0.12539100  0.03481400  0.86942700  1
  C  644  1  0.15577300  0.06331600  0.87824600  1
  C  646  1  0.12018700  0.04224500  0.90466700  1
  C  647  1  0.18579500  0.09363800  0.86977300  1
  C  648  1  0.21473500  0.12349100  0.87864600  1
  C  649  1  0.23771600  0.15770900  0.86970300  1
  C  650  1  0.23295000  0.16354800  0.85179200  1
  C  651  1  0.20597000  0.13048900  0.84349500  1
  C  659  1  0.41237900  0.98315900  0.39645500  1
  C  660  1  0.40733900  0.98744500  0.37849200  1
  C  661  1  0.37347600  0.96422500  0.36942900  1
  C  662  1  0.34310000  0.93570300  0.37824200  1
  C  664  1  0.37871500  0.95674400  0.40466500  1
  C  665  1  0.31311600  0.90535000  0.36976800  1
  C  666  1  0.28415800  0.87551200  0.37864000  1
  C  667  1  0.26119300  0.84128000  0.36969800  1
  C  668  1  0.26597000  0.83543200  0.35178700  1
  C  669  1  0.29296300  0.86848700  0.34349200  1
  C  677  1  0.73157000  0.33585100  0.64732300  1
  C  678  1  0.73742400  0.34229800  0.62948100  1
  C  679  1  0.71441100  0.37631400  0.62044900  1
  C  680  1  0.68445100  0.40542500  0.62917100  1
  C  682  1  0.70313800  0.36793900  0.65546700  1
  C  683  1  0.65476900  0.43572300  0.62056100  1
  C  684  1  0.62528200  0.46528400  0.62929900  1
  C  685  1  0.59161800  0.48866200  0.62021500  1
  C  686  1  0.58595000  0.48359900  0.60230300  1
  C  687  1  0.61863600  0.45588500  0.59414900  1
  C  695  1  0.76734000  0.66305200  0.14731600  1
  C  696  1  0.76149900  0.65662500  0.12947300  1
  C  697  1  0.78448900  0.62259700  0.12043800  1
  C  698  1  0.81444900  0.59348500  0.12915900  1
  C  700  1  0.79577500  0.63096400  0.15545700  1
  C  701  1  0.84413800  0.56318400  0.12055300  1
  C  702  1  0.87363100  0.53363000  0.12929100  1
  C  703  1  0.90730500  0.51026500  0.12020800  1
  C  704  1  0.91297400  0.51532800  0.10229700  1
  C  705  1  0.88028400  0.54303900  0.09414300  1
  C  713  1  0.41282200  0.01637400  0.60179600  1
  C  714  1  0.40687900  0.01149400  0.61969700  1
  C  715  1  0.37257600  0.03437200  0.62862500  1
  C  716  1  0.34272100  0.06328900  0.61974400  1
  C  718  1  0.37976700  0.04333100  0.59348600  1
  C  719  1  0.31235100  0.09324200  0.62821700  1
  C  720  1  0.28366400  0.12345900  0.61940500  1
  C  721  1  0.26047500  0.15734400  0.62846400  1
  C  722  1  0.26494200  0.16253300  0.64641600  1
  C  723  1  0.29153100  0.12901000  0.65462500  1
  C  731  1  0.08611200  0.98256400  0.10179900  1
  C  732  1  0.09206100  0.98745500  0.11969900  1
  C  733  1  0.12643000  0.96466200  0.12862200  1
  C  734  1  0.15628000  0.93573000  0.11974200  1
  C  736  1  0.11918900  0.95564800  0.09348400  1
  C  737  1  0.18662500  0.90575300  0.12821400  1
  C  738  1  0.21532600  0.87554900  0.11940200  1
  C  739  1  0.23849800  0.84164900  0.12846100  1
  C  740  1  0.23401800  0.83645000  0.14641300  1
  C  741  1  0.20742500  0.86997200  0.15462000  1
  C  749  1  0.76731300  0.33472400  0.85168300  1
  C  750  1  0.76121200  0.34155800  0.86949600  1
  C  751  1  0.78460000  0.37529900  0.87853500  1
  C  752  1  0.81519600  0.40380800  0.86985300  1
  C  754  1  0.79646200  0.36620400  0.84356600  1
  C  755  1  0.84495300  0.43391700  0.87853600  1
  C  756  1  0.87392200  0.46413100  0.86988300  1
  C  757  1  0.90732200  0.48776300  0.87902000  1
  C  758  1  0.91337000  0.48223600  0.89690300  1
  C  759  1  0.88136700  0.45356100  0.90496800  1
  C  767  1  0.73164400  0.66417800  0.35168400  1
  C  768  1  0.73772500  0.65736300  0.36949900  1
  C  769  1  0.71435400  0.62361500  0.37853700  1
  C  770  1  0.68375100  0.59511200  0.36985600  1
  C  772  1  0.70249200  0.63269600  0.34356600  1
  C  773  1  0.65398400  0.56501000  0.37853700  1
  C  774  1  0.62500100  0.53480300  0.36988300  1
  C  775  1  0.59159500  0.51118500  0.37902300  1
  C  776  1  0.58555400  0.51671500  0.39690400  1
  C  777  1  0.61755700  0.54538600  0.40496900  1
  C  785  1  0.99936700  0.12776900  0.08996300  1
  C  786  1  0.96463100  0.15254300  0.09830000  1
  C  787  1  0.96595700  0.19996700  0.09961700  1
  C  788  1  0.00254800  0.22421900  0.09250300  1
  C  790  1  0.03560900  0.15412900  0.08347500  1
  C  791  1  0.00467700  0.27228400  0.09227000  1
  C  792  1  0.04074800  0.29633000  0.08470600  1
  C  793  1  0.03891700  0.34373200  0.08370800  1
  C  794  1  0.00166100  0.36882900  0.09014700  1
  C  795  1  0.96733400  0.34272500  0.09810600  1
  C  803  1  0.49954000  0.87115600  0.58995300  1
  C  804  1  0.53426200  0.84638400  0.59830000  1
  C  805  1  0.53292300  0.79896100  0.59962500  1
  C  806  1  0.49633700  0.77470700  0.59251000  1
  C  808  1  0.46328900  0.84479800  0.58346900  1
  C  809  1  0.49421900  0.72664200  0.59227400  1
  C  810  1  0.45814400  0.70259000  0.58471600  1
  C  811  1  0.45998400  0.65518800  0.58371800  1
  C  812  1  0.49724700  0.63009800  0.59015600  1
  C  813  1  0.53157700  0.65620900  0.59811000  1
  C  821  1  0.12071200  0.74857200  0.33988300  1
  C  822  1  0.09590300  0.71356900  0.34805500  1
  C  823  1  0.04844200  0.71470600  0.34926000  1
  C  824  1  0.02421000  0.75139300  0.34221200  1
  C  826  1  0.09435600  0.78489400  0.33346600  1
  C  827  1  0.97614800  0.75350700  0.34188400  1
  C  828  1  0.95233300  0.79004600  0.33453700  1
  C  829  1  0.90494800  0.78852400  0.33349100  1
  C  830  1  0.87961800  0.75116300  0.33969700  1
  C  831  1  0.90546500  0.71616000  0.34734400  1
  C  839  1  0.37824200  0.25037700  0.83988400  1
  C  840  1  0.40305700  0.28538700  0.84804700  1
  C  841  1  0.45051700  0.28424500  0.84925100  1
  C  842  1  0.47474400  0.24755200  0.84220700  1
  C  844  1  0.40459300  0.21405300  0.83346500  1
  C  845  1  0.52280600  0.24542800  0.84187900  1
  C  846  1  0.54661400  0.20888600  0.83453200  1
  C  847  1  0.59400000  0.21040000  0.83348800  1
  C  848  1  0.61933600  0.24775700  0.83969600  1
  C  849  1  0.59349200  0.28276400  0.84733900  1
  C  857  1  0.49931300  0.12814600  0.40878200  1
  C  858  1  0.53473900  0.15280400  0.40080800  1
  C  859  1  0.53383600  0.20026500  0.39958900  1
  C  860  1  0.49698600  0.22464100  0.40644100  1
  C  862  1  0.46283500  0.15464200  0.41498400  1
  C  863  1  0.49506200  0.27270500  0.40678200  1
  C  864  1  0.45885100  0.29663700  0.41430400  1
  C  865  1  0.46059300  0.34400600  0.41536100  1
  C  866  1  0.49785500  0.36919800  0.40899300  1
  C  867  1  0.53246900  0.34324200  0.40115100  1
  C  875  1  0.99965000  0.87078400  0.90878500  1
  C  876  1  0.96424600  0.84613000  0.90079500  1
  C  877  1  0.96517200  0.79867400  0.89956200  1
  C  878  1  0.00201700  0.77429400  0.90641700  1
  C  880  1  0.03614100  0.84429400  0.91497800  1
  C  881  1  0.00392900  0.72623200  0.90676000  1
  C  882  1  0.04014000  0.70229300  0.91427700  1
  C  883  1  0.03838000  0.65492400  0.91534200  1
  C  884  1  0.00110500  0.62974300  0.90898100  1
  C  885  1  0.96650200  0.65570600  0.90113400  1
  C  893  1  0.37865100  0.74909000  0.15890900  1
  C  894  1  0.40338500  0.71372800  0.15093200  1
  C  895  1  0.45086900  0.71460400  0.14980700  1
  C  896  1  0.47520100  0.75136600  0.15675200  1
  C  898  1  0.40511000  0.78547600  0.16521800  1
  C  899  1  0.52327300  0.75326300  0.15716000  1
  C  900  1  0.54717200  0.78946700  0.16470500  1
  C  901  1  0.59454100  0.78771200  0.16581400  1
  C  902  1  0.61977600  0.75045300  0.15946600  1
  C  903  1  0.59385400  0.71582200  0.15161600  1
  C  911  1  0.12025900  0.24984400  0.65891300  1
  C  912  1  0.09551700  0.28521900  0.65094700  1
  C  913  1  0.04803400  0.28433400  0.64981800  1
  C  914  1  0.02370800  0.24756100  0.65675800  1
  C  916  1  0.09380300  0.21345800  0.66522300  1
  C  917  1  0.97563400  0.24565000  0.65716400  1
  C  918  1  0.95173800  0.20943900  0.66470400  1
  C  919  1  0.90436900  0.21118700  0.66581000  1
  C  920  1  0.87913100  0.24844000  0.65946200  1
  C  921  1  0.90504900  0.28308400  0.65162000  1
  C  929  1  0.43843900  0.51643400  0.08741000  1
  C  930  1  0.43799900  0.50563700  0.06778900  1
  C  931  1  0.48164400  0.49458800  0.09577500  1
  C  932  1  0.48437900  0.44201100  0.09292700  1
  C  935  1  0.48292500  0.43419100  0.07304300  1
  C  936  1  0.43934100  0.45357700  0.06402700  1
  C  941  1  0.39773000  0.43050000  0.07300200  1
  C  942  1  0.39600800  0.43913500  0.09283300  1
  C  945  1  0.44082100  0.41930900  0.10052500  1
  C  948  1  0.39602500  0.49192300  0.09542300  1
  C  951  1  0.93985900  0.36187800  0.58739900  1
  C  952  1  0.94029600  0.37268400  0.56778000  1
  C  953  1  0.89665800  0.38373100  0.59576700  1
  C  954  1  0.89393500  0.43631100  0.59292200  1
  C  957  1  0.89538600  0.44414000  0.57303800  1
  C  958  1  0.93896700  0.42474400  0.56402100  1
  C  963  1  0.98058500  0.44780900  0.57299500  1
  C  964  1  0.98230700  0.43916800  0.59282600  1
  C  967  1  0.93749900  0.45900000  0.60052000  1
  C  970  1  0.98228000  0.38638200  0.59541300  1
  C  973  1  0.61144200  0.18778600  0.33734500  1
  C  974  1  0.62221400  0.18747500  0.31772100  1
  C  975  1  0.63329200  0.23095400  0.34575000  1
  C  976  1  0.68586400  0.23375800  0.34288300  1
  C  979  1  0.69364200  0.23240500  0.32299100  1
  C  980  1  0.67426200  0.18885100  0.31394600  1
  C  985  1  0.69737800  0.14722300  0.32289500  1
  C  986  1  0.68874800  0.14540300  0.34272400  1
  C  989  1  0.70858700  0.19016700  0.35044500  1
  C  992  1  0.63596900  0.14534500  0.34531500  1
  C  995  1  0.76689900  0.69055500  0.83734600  1
  C  996  1  0.75612300  0.69086500  0.81772300  1
  C  997  1  0.74504500  0.64738900  0.84575300  1
  C  998  1  0.69247200  0.64459600  0.84288700  1
  C  1001  1  0.68469000  0.64594700  0.82299400  1
  C  1002  1  0.70407400  0.68949700  0.81395000  1
  C  1007  1  0.68096600  0.73113100  0.82289700  1
  C  1008  1  0.68960100  0.73295200  0.84272600  1
  C  1011  1  0.66976000  0.68819000  0.85044800  1
  C  1014  1  0.74238000  0.73300200  0.84531600  1
  C  1017  1  0.93918300  0.51682100  0.41134700  1
  C  1018  1  0.93860500  0.50612000  0.43097800  1
  C  1019  1  0.89632600  0.49511100  0.40265500  1
  C  1020  1  0.89318400  0.44258400  0.40554900  1
  C  1023  1  0.89364800  0.43491400  0.42544300  1
  C  1024  1  0.93684600  0.45409300  0.43476500  1
  C  1029  1  0.97881600  0.43077400  0.42610800  1
  C  1030  1  0.98152600  0.43933000  0.40628400  1
  C  1033  1  0.93701500  0.41964000  0.39829100  1
  C  1036  1  0.98189400  0.49211500  0.40367600  1
  C  1039  1  0.43915900  0.36149900  0.91135200  1
  C  1040  1  0.43974300  0.37219700  0.93098400  1
  C  1041  1  0.48200700  0.38322000  0.90266000  1
  C  1042  1  0.48513600  0.43575000  0.90555500  1
  C  1045  1  0.48467700  0.44341400  0.92544900  1
  C  1046  1  0.44148800  0.42422300  0.93477300  1
  C  1051  1  0.39950900  0.44753100  0.92611700  1
  C  1052  1  0.39679600  0.43897600  0.90629300  1
  C  1055  1  0.44129400  0.45868000  0.89829900  1
  C  1058  1  0.39644100  0.38619300  0.90368500  1
  C  1061  1  0.76727400  0.18864800  0.16135400  1
  C  1062  1  0.75628200  0.18903700  0.18096600  1
  C  1063  1  0.74579700  0.23165400  0.15268400  1
  C  1064  1  0.69324400  0.23490800  0.15548100  1
  C  1067  1  0.68529700  0.23425200  0.17535400  1
  C  1068  1  0.70421200  0.19091500  0.18465600  1
  C  1073  1  0.68092500  0.14907600  0.17588000  1
  C  1074  1  0.68973900  0.14656300  0.15605900  1
  C  1077  1  0.67028000  0.19122900  0.14811500  1
  C  1080  1  0.74256400  0.14608300  0.15355500  1
  C  1083  1  0.61102300  0.68968200  0.66135900  1
  C  1084  1  0.62201400  0.68929500  0.68097200  1
  C  1085  1  0.63251200  0.64668100  0.65268900  1
  C  1086  1  0.68506700  0.64344400  0.65548600  1
  C  1089  1  0.69301300  0.64410200  0.67535900  1
  C  1090  1  0.67408600  0.68743300  0.68466100  1
  C  1095  1  0.69736200  0.72927700  0.67588600  1
  C  1096  1  0.68854900  0.73179100  0.65606500  1
  C  1099  1  0.70801600  0.68712900  0.64812000  1
  C  1102  1  0.63572400  0.73225800  0.65356200  1
  C  1105  1  0.26776300  0.69006800  0.66180500  1
  C  1106  1  0.25663200  0.69038300  0.68139700  1
  C  1107  1  0.24491900  0.64767200  0.65322000  1
  C  1108  1  0.19226100  0.64624400  0.65595500  1
  C  1111  1  0.18416400  0.64744200  0.67583800  1
  C  1112  1  0.20450800  0.69033700  0.68502900  1
  C  1117  1  0.18265500  0.73269400  0.67610800  1
  C  1118  1  0.19173000  0.73463100  0.65631000  1
  C  1121  1  0.17085100  0.69053700  0.64844600  1
  C  1124  1  0.24456400  0.73332300  0.65386300  1
  C  1127  1  0.11053200  0.18821200  0.16180500  1
  C  1128  1  0.12167000  0.18789100  0.18139700  1
  C  1129  1  0.13337600  0.23061200  0.15322100  1
  C  1130  1  0.18603400  0.23204000  0.15595600  1
  C  1133  1  0.19413500  0.23083200  0.17583700  1
  C  1134  1  0.17379000  0.18793500  0.18502800  1
  C  1139  1  0.19564300  0.14558200  0.17610500  1
  C  1140  1  0.18656200  0.14365100  0.15630600  1
  C  1143  1  0.20743700  0.18774900  0.14844400  1
  C  1146  1  0.13372700  0.14496000  0.15386000  1
  C  1149  1  0.11011600  0.68908800  0.83741300  1
  C  1150  1  0.12139600  0.68871200  0.81782600  1
  C  1151  1  0.13267500  0.64689300  0.84625900  1
  C  1152  1  0.18531400  0.64508100  0.84355800  1
  C  1155  1  0.19350200  0.64559400  0.82369100  1
  C  1156  1  0.17354000  0.68824900  0.81425100  1
  C  1161  1  0.19555200  0.73084300  0.82298300  1
  C  1162  1  0.18634500  0.73346100  0.84277400  1
  C  1165  1  0.20693600  0.68949800  0.85085700  1
  C  1168  1  0.13346700  0.73250900  0.84515900  1
  C  1171  1  0.26822600  0.18920700  0.33741200  1
  C  1172  1  0.25695700  0.18957500  0.31782500  1
  C  1173  1  0.24565300  0.23140400  0.34625600  1
  C  1174  1  0.19301800  0.23320000  0.34354900  1
  C  1177  1  0.18483700  0.23268200  0.32368200  1
  C  1178  1  0.20481600  0.19002500  0.31424500  1
  C  1183  1  0.18280700  0.14742900  0.32297800  1
  C  1184  1  0.19200400  0.14482100  0.34277100  1
  C  1187  1  0.17140600  0.18878000  0.35084900  1
  C  1190  1  0.24488200  0.14578200  0.34515800  1
  C  1193  1  0.93944000  0.01875420  0.58771200  1
  C  1194  1  0.94070800  0.00784024  0.56811700  1
  C  1195  1  0.98257100  0.99609600  0.59591500  1
  C  1196  1  0.98469500  0.94348200  0.59326300  1
  C  1199  1  0.98336900  0.93516800  0.57343300  1
  C  1200  1  0.94052200  0.95570500  0.56434400  1
  C  1205  1  0.89803800  0.93392700  0.57324400  1
  C  1206  1  0.89623800  0.94235200  0.59313600  1
  C  1209  1  0.94067800  0.92170000  0.60084100  1
  C  1212  1  0.89684000  0.99511500  0.59586900  1
  C  1215  1  0.43886800  0.85956100  0.08770800  1
  C  1216  1  0.43760300  0.87047600  0.06811200  1
  C  1217  1  0.39574100  0.88221900  0.09591100  1
  C  1218  1  0.39362000  0.93483300  0.09325800  1
  C  1221  1  0.39493900  0.94314400  0.07342800  1
  C  1222  1  0.43778600  0.92261000  0.06433900  1
  C  1227  1  0.48027100  0.94438800  0.07323900  1
  C  1228  1  0.48207200  0.93596300  0.09313200  1
  C  1231  1  0.43763700  0.95661500  0.10083700  1
  C  1234  1  0.48147000  0.88320000  0.09586400  1
  C  1237  1  0.43874300  0.01839220  0.91135600  1
  C  1238  1  0.43856700  0.00736924  0.93094200  1
  C  1239  1  0.39536900  0.99528100  0.90345300  1
  C  1240  1  0.39383300  0.94248400  0.90597100  1
  C  1243  1  0.39557200  0.93367000  0.92581300  1
  C  1244  1  0.43814400  0.95523200  0.93465900  1
  C  1249  1  0.48092200  0.93458700  0.92550000  1
  C  1250  1  0.48229700  0.94277500  0.90563200  1
  C  1253  1  0.43794500  0.92145000  0.89814400  1
  C  1256  1  0.48108700  0.99539600  0.90283500  1
  C  1259  1  0.93958500  0.85993700  0.41136200  1
  C  1260  1  0.93975800  0.87097300  0.43094900  1
  C  1261  1  0.98295300  0.88305400  0.40345700  1
  C  1262  1  0.98447800  0.93585100  0.40597300  1
  C  1265  1  0.98274300  0.94467600  0.42581300  1
  C  1266  1  0.94017400  0.92310700  0.43466200  1
  C  1271  1  0.89739200  0.94374200  0.42550300  1
  C  1272  1  0.89601500  0.93554700  0.40563500  1
  C  1275  1  0.94036300  0.95687600  0.39814600  1
  C  1278  1  0.89723300  0.88292200  0.40284100  1
  C  1281  1  0.44138600  0.43129500  0.95405900  1
  C  1282  1  0.47913200  0.44774700  0.96343400  1
  C  1283  1  0.47877000  0.45051500  0.98134600  1
  C  1284  1  0.43955500  0.43793800  0.99040000  1
  C  1286  1  0.40332700  0.41881100  0.96408800  1
  C  1287  1  0.43728900  0.44009400  0.00840100  1
  C  1288  1  0.39843300  0.45520300  0.01710700  1
  C  1289  1  0.39956300  0.45914500  0.03499300  1
  C  1290  1  0.43808000  0.44642900  0.04475300  1
  C  1291  1  0.47533800  0.43009800  0.03510400  1
  C  1299  1  0.93695400  0.44702000  0.45405200  1
  C  1300  1  0.89919800  0.43060500  0.46343000  1
  C  1301  1  0.89954000  0.42790000  0.48134400  1
  C  1302  1  0.93877000  0.44043600  0.49039700  1
  C  1304  1  0.97501100  0.45950800  0.46408100  1
  C  1305  1  0.94104000  0.43829700  0.50839700  1
  C  1306  1  0.97990200  0.42319500  0.51710300  1
  C  1307  1  0.97875200  0.41920000  0.53498700  1
  C  1308  1  0.94022800  0.43189700  0.54474600  1
  C  1309  1  0.90299300  0.44830000  0.53510100  1
  C  1317  1  0.69688500  0.19076200  0.20393800  1
  C  1318  1  0.68062300  0.22860300  0.21331100  1
  C  1319  1  0.67781100  0.22827800  0.23122300  1
  C  1320  1  0.69007600  0.18899000  0.24029400  1
  C  1322  1  0.70904200  0.15262100  0.21397700  1
  C  1323  1  0.68784500  0.18678100  0.25830500  1
  C  1324  1  0.67284100  0.14789900  0.26702000  1
  C  1325  1  0.66879100  0.14906600  0.28490400  1
  C  1326  1  0.68137900  0.18762400  0.29466600  1
  C  1327  1  0.69759700  0.22492700  0.28501500  1
  C  1335  1  0.68142000  0.68758200  0.70394300  1
  C  1336  1  0.69765200  0.64973400  0.71331800  1
  C  1337  1  0.70048400  0.65006400  0.73122900  1
  C  1338  1  0.68821300  0.68935100  0.74029900  1
  C  1340  1  0.66924400  0.72571800  0.71398200  1
  C  1341  1  0.69045400  0.69156500  0.75831000  1
  C  1342  1  0.70547300  0.73044400  0.76702300  1
  C  1343  1  0.70953900  0.72927300  0.78490700  1
  C  1344  1  0.69694900  0.69071800  0.79467000  1
  C  1345  1  0.68071400  0.65342200  0.78502000  1
  C  1353  1  0.18105900  0.68832400  0.79498100  1
  C  1354  1  0.19798700  0.65065800  0.78567600  1
  C  1355  1  0.20089600  0.65084700  0.76776100  1
  C  1356  1  0.18800200  0.68984000  0.75863900  1
  C  1358  1  0.16820600  0.72611300  0.78487400  1
  C  1359  1  0.19042400  0.69205500  0.74064400  1
  C  1360  1  0.20622300  0.73074300  0.73201200  1
  C  1361  1  0.21040300  0.72968700  0.71413500  1
  C  1362  1  0.19716200  0.69148600  0.70429700  1
  C  1363  1  0.18025400  0.65435000  0.71387500  1
  C  1371  1  0.19731700  0.18994000  0.29497500  1
  C  1372  1  0.18035900  0.22759500  0.28566800  1
  C  1373  1  0.17748000  0.22740900  0.26775300  1
  C  1374  1  0.19035700  0.18840800  0.25863400  1
  C  1376  1  0.21017000  0.15215000  0.28486900  1
  C  1377  1  0.18794200  0.18619000  0.24063700  1
  C  1378  1  0.17216700  0.14749000  0.23200700  1
  C  1379  1  0.16793200  0.14856900  0.21413300  1
  C  1380  1  0.18114300  0.18678500  0.20429600  1
  C  1381  1  0.19810900  0.22389800  0.21387000  1
  C  1389  1  0.94133800  0.93051100  0.45392300  1
  C  1390  1  0.97771700  0.91368100  0.46392900  1
  C  1391  1  0.97809300  0.91693400  0.48183900  1
  C  1392  1  0.94146600  0.93750500  0.49043100  1
  C  1394  1  0.90620900  0.95181200  0.46330400  1
  C  1395  1  0.93905400  0.94107400  0.50856300  1
  C  1396  1  0.90229300  0.96134700  0.51716900  1
  C  1397  1  0.90272200  0.96466200  0.53507800  1
  C  1398  1  0.93933500  0.94828100  0.54507500  1
  C  1399  1  0.97455800  0.92718600  0.53567400  1
  C  1407  1  0.43699100  0.94785200  0.95392100  1
  C  1408  1  0.40061100  0.96468200  0.96392600  1
  C  1409  1  0.40022200  0.96140100  0.98183500  1
  C  1410  1  0.43683900  0.94081300  0.99042700  1
  C  1412  1  0.47209700  0.92651000  0.96330000  1
  C  1413  1  0.43924400  0.93723500  0.00855800  1
  C  1414  1  0.47601800  0.91697800  0.01716500  1
  C  1415  1  0.47558500  0.91366000  0.03507400  1
  C  1416  1  0.43896600  0.93003100  0.04507000  1
  C  1417  1  0.40373000  0.95110200  0.03566900  1
  C  1425  1  0.35570200  0.41764100  0.10187400  1
  C  1426  1  0.34945500  0.42306600  0.11974400  1
  C  1427  1  0.31551700  0.39988800  0.12875700  1
  C  1428  1  0.28630100  0.37011000  0.11999500  1
  C  1430  1  0.32370600  0.38913900  0.09371100  1
  C  1431  1  0.25571500  0.34063000  0.12856900  1
  C  1432  1  0.22598200  0.31132600  0.11982500  1
  C  1433  1  0.20203500  0.27809600  0.12893400  1
  C  1434  1  0.20677700  0.27263700  0.14686700  1
  C  1435  1  0.23466800  0.30517800  0.15501400  1
  C  1443  1  0.02262720  0.46064000  0.60186500  1
  C  1444  1  0.02889120  0.45518600  0.61973400  1
  C  1445  1  0.06284920  0.47833900  0.62874500  1
  C  1446  1  0.09206120  0.50813200  0.61998900  1
  C  1448  1  0.05462620  0.48914000  0.59370500  1
  C  1449  1  0.12261700  0.53763700  0.62856600  1
  C  1450  1  0.15236000  0.56693300  0.61982300  1
  C  1451  1  0.17629300  0.60017300  0.62893300  1
  C  1452  1  0.17152400  0.60564500  0.64686400  1
  C  1453  1  0.14365400  0.57308600  0.65501200  1
  C  1461  1  0.71020900  0.10505200  0.35173200  1
  C  1462  1  0.70472800  0.09870120  0.36959500  1
  C  1463  1  0.72786000  0.06469520  0.37858300  1
  C  1464  1  0.75766000  0.03555720  0.36979900  1
  C  1466  1  0.73876300  0.07314820  0.34354900  1
  C  1467  1  0.78715700  0.00499524  0.37835700  1
  C  1468  1  0.81648800  0.97536300  0.36958000  1
  C  1469  1  0.84987400  0.95156500  0.37865400  1
  C  1470  1  0.85541500  0.95632800  0.39658200  1
  C  1471  1  0.82284300  0.98409900  0.40476700  1
  C  1479  1  0.66813800  0.77329600  0.85173700  1
  C  1480  1  0.67360800  0.77963800  0.86960100  1
  C  1481  1  0.65049100  0.81365000  0.87858900  1
  C  1482  1  0.62068300  0.84277800  0.86980600  1
  C  1484  1  0.63957600  0.80519800  0.84355500  1
  C  1485  1  0.59117200  0.87333700  0.87835800  1
  C  1486  1  0.56182900  0.90295600  0.86958000  1
  C  1487  1  0.52842900  0.92674000  0.87865300  1
  C  1488  1  0.52289500  0.92198400  0.89658000  1
  C  1489  1  0.55546800  0.89421900  0.90476700  1
  C  1497  1  0.02214020  0.41770900  0.39749600  1
  C  1498  1  0.02924220  0.42341800  0.37968800  1
  C  1499  1  0.06358620  0.40040800  0.37085900  1
  C  1500  1  0.09230120  0.37038100  0.37973300  1
  C  1502  1  0.05360820  0.38891200  0.40580300  1
  C  1503  1  0.12318500  0.34110700  0.37122000  1
  C  1504  1  0.15252300  0.31137400  0.37994900  1
  C  1505  1  0.17671600  0.27844100  0.37076200  1
  C  1506  1  0.17243100  0.27363800  0.35278500  1
  C  1507  1  0.14503800  0.30667900  0.34468600  1
  C  1515  1  0.35616500  0.46057500  0.89750900  1
  C  1516  1  0.34904500  0.45484200  0.87970300  1
  C  1517  1  0.31467500  0.47782600  0.87087700  1
  C  1518  1  0.28596600  0.50786600  0.87974900  1
  C  1520  1  0.32469000  0.48936700  0.90581700  1
  C  1521  1  0.25510700  0.53716400  0.87123300  1
  C  1522  1  0.22575500  0.56688400  0.87995900  1
  C  1523  1  0.20156900  0.59982000  0.87077100  1
  C  1524  1  0.20586800  0.60462700  0.85279400  1
  C  1525  1  0.23327400  0.57159100  0.84469700  1
  C  1533  1  0.66802500  0.10620200  0.14712100  1
  C  1534  1  0.67370000  0.09946820  0.12928200  1
  C  1535  1  0.65014700  0.06574420  0.12029900  1
  C  1536  1  0.61977300  0.03716420  0.12905800  1
  C  1538  1  0.63883200  0.07486220  0.15529300  1
  C  1539  1  0.59022400  0.00670024  0.12045400  1
  C  1540  1  0.56148300  0.97641200  0.12918200  1
  C  1541  1  0.52841400  0.95220800  0.12008500  1
  C  1542  1  0.52247200  0.95726100  0.10217900  1
  C  1543  1  0.55427300  0.98601700  0.09404600  1
  C  1551  1  0.71026200  0.77214500  0.64712400  1
  C  1552  1  0.70459800  0.77887100  0.62928500  1
  C  1553  1  0.72813200  0.81260200  0.62030100  1
  C  1554  1  0.75851400  0.84117500  0.62905900  1
  C  1556  1  0.73945700  0.80348700  0.65529600  1
  C  1557  1  0.78807000  0.87163600  0.62045800  1
  C  1558  1  0.81682300  0.90191700  0.62918500  1
  C  1559  1  0.84990100  0.92610400  0.62008900  1
  C  1560  1  0.85583700  0.92105400  0.60218300  1
  C  1561  1  0.82403400  0.89230500  0.59405000  1
  C  1569  1  0.52623800  0.45549400  0.89645900  1
  C  1570  1  0.53124700  0.45126000  0.87849300  1
  C  1571  1  0.56508500  0.47450800  0.86942700  1
  C  1572  1  0.59546700  0.50301000  0.87824600  1
  C  1574  1  0.55988100  0.48193900  0.90466700  1
  C  1575  1  0.62548900  0.53333200  0.86977300  1
  C  1576  1  0.65442900  0.56318500  0.87864600  1
  C  1577  1  0.67741000  0.59740300  0.86970300  1
  C  1578  1  0.67264400  0.60324200  0.85179200  1
  C  1579  1  0.64566400  0.57018300  0.84349500  1
  C  1587  1  0.85207300  0.42285300  0.39645500  1
  C  1588  1  0.84703300  0.42713900  0.37849200  1
  C  1589  1  0.81317000  0.40391900  0.36942900  1
  C  1590  1  0.78279400  0.37539700  0.37824200  1
  C  1592  1  0.81840900  0.39643800  0.40466500  1
  C  1593  1  0.75281000  0.34504400  0.36976800  1
  C  1594  1  0.72385200  0.31520600  0.37864000  1
  C  1595  1  0.70088700  0.28097400  0.36969800  1
  C  1596  1  0.70566400  0.27512600  0.35178700  1
  C  1597  1  0.73265700  0.30818100  0.34349200  1
  C  1605  1  0.17126400  0.77554500  0.64732300  1
  C  1606  1  0.17711800  0.78199200  0.62948100  1
  C  1607  1  0.15410500  0.81600800  0.62044900  1
  C  1608  1  0.12414500  0.84511900  0.62917100  1
  C  1610  1  0.14283200  0.80763300  0.65546700  1
  C  1611  1  0.09446320  0.87541700  0.62056100  1
  C  1612  1  0.06497620  0.90497800  0.62929900  1
  C  1613  1  0.03131220  0.92835600  0.62021500  1
  C  1614  1  0.02564420  0.92329300  0.60230300  1
  C  1615  1  0.05833020  0.89557900  0.59414900  1
  C  1623  1  0.20703400  0.10274600  0.14731600  1
  C  1624  1  0.20119300  0.09631920  0.12947300  1
  C  1625  1  0.22418300  0.06229120  0.12043800  1
  C  1626  1  0.25414300  0.03317920  0.12915900  1
  C  1628  1  0.23546900  0.07065820  0.15545700  1
  C  1629  1  0.28383200  0.00287824  0.12055300  1
  C  1630  1  0.31332500  0.97332400  0.12929100  1
  C  1631  1  0.34699900  0.94995900  0.12020800  1
  C  1632  1  0.35266800  0.95502200  0.10229700  1
  C  1633  1  0.31997800  0.98273300  0.09414300  1
  C  1641  1  0.85251600  0.45606800  0.60179600  1
  C  1642  1  0.84657300  0.45118800  0.61969700  1
  C  1643  1  0.81227000  0.47406600  0.62862500  1
  C  1644  1  0.78241500  0.50298300  0.61974400  1
  C  1646  1  0.81946100  0.48302500  0.59348600  1
  C  1647  1  0.75204500  0.53293600  0.62821700  1
  C  1648  1  0.72335800  0.56315300  0.61940500  1
  C  1649  1  0.70016900  0.59703800  0.62846400  1
  C  1650  1  0.70463600  0.60222700  0.64641600  1
  C  1651  1  0.73122500  0.56870400  0.65462500  1
  C  1659  1  0.52580600  0.42225800  0.10179900  1
  C  1660  1  0.53175500  0.42714900  0.11969900  1
  C  1661  1  0.56612400  0.40435600  0.12862200  1
  C  1662  1  0.59597400  0.37542400  0.11974200  1
  C  1664  1  0.55888300  0.39534200  0.09348400  1
  C  1665  1  0.62631900  0.34544700  0.12821400  1
  C  1666  1  0.65502000  0.31524300  0.11940200  1
  C  1667  1  0.67819200  0.28134300  0.12846100  1
  C  1668  1  0.67371200  0.27614400  0.14641300  1
  C  1669  1  0.64711900  0.30966600  0.15462000  1
  C  1677  1  0.20700700  0.77441800  0.85168300  1
  C  1678  1  0.20090600  0.78125200  0.86949600  1
  C  1679  1  0.22429400  0.81499300  0.87853500  1
  C  1680  1  0.25489000  0.84350200  0.86985300  1
  C  1682  1  0.23615600  0.80589800  0.84356600  1
  C  1683  1  0.28464700  0.87361100  0.87853600  1
  C  1684  1  0.31361600  0.90382500  0.86988300  1
  C  1685  1  0.34701600  0.92745700  0.87902000  1
  C  1686  1  0.35306400  0.92193000  0.89690300  1
  C  1687  1  0.32106100  0.89325500  0.90496800  1
  C  1695  1  0.17133800  0.10387200  0.35168400  1
  C  1696  1  0.17741900  0.09705720  0.36949900  1
  C  1697  1  0.15404800  0.06330920  0.37853700  1
  C  1698  1  0.12344500  0.03480620  0.36985600  1
  C  1700  1  0.14218600  0.07239020  0.34356600  1
  C  1701  1  0.09367820  0.00470424  0.37853700  1
  C  1702  1  0.06469520  0.97449700  0.36988300  1
  C  1703  1  0.03128920  0.95087900  0.37902300  1
  C  1704  1  0.02524820  0.95640900  0.39690400  1
  C  1705  1  0.05725120  0.98508000  0.40496900  1
  C  1713  1  0.43906100  0.56746300  0.08996300  1
  C  1714  1  0.40432500  0.59223700  0.09830000  1
  C  1715  1  0.40565100  0.63966100  0.09961700  1
  C  1716  1  0.44224200  0.66391300  0.09250300  1
  C  1718  1  0.47530300  0.59382300  0.08347500  1
  C  1719  1  0.44437100  0.71197800  0.09227000  1
  C  1720  1  0.48044200  0.73602400  0.08470600  1
  C  1721  1  0.47861100  0.78342600  0.08370800  1
  C  1722  1  0.44135500  0.80852300  0.09014700  1
  C  1723  1  0.40702800  0.78241900  0.09810600  1
  C  1731  1  0.93923400  0.31085000  0.58995300  1
  C  1732  1  0.97395600  0.28607800  0.59830000  1
  C  1733  1  0.97261700  0.23865500  0.59962500  1
  C  1734  1  0.93603100  0.21440100  0.59251000  1
  C  1736  1  0.90298300  0.28449200  0.58346900  1
  C  1737  1  0.93391300  0.16633600  0.59227400  1
  C  1738  1  0.89783800  0.14228400  0.58471600  1
  C  1739  1  0.89967800  0.09488220  0.58371800  1
  C  1740  1  0.93694100  0.06979220  0.59015600  1
  C  1741  1  0.97127100  0.09590320  0.59811000  1
  C  1749  1  0.56040600  0.18826600  0.33988300  1
  C  1750  1  0.53559700  0.15326300  0.34805500  1
  C  1751  1  0.48813600  0.15440000  0.34926000  1
  C  1752  1  0.46390400  0.19108700  0.34221200  1
  C  1754  1  0.53405000  0.22458800  0.33346600  1
  C  1755  1  0.41584200  0.19320100  0.34188400  1
  C  1756  1  0.39202700  0.22974000  0.33453700  1
  C  1757  1  0.34464200  0.22821800  0.33349100  1
  C  1758  1  0.31931200  0.19085700  0.33969700  1
  C  1759  1  0.34515900  0.15585400  0.34734400  1
  C  1767  1  0.81793600  0.69007100  0.83988400  1
  C  1768  1  0.84275100  0.72508100  0.84804700  1
  C  1769  1  0.89021100  0.72393900  0.84925100  1
  C  1770  1  0.91443800  0.68724600  0.84220700  1
  C  1772  1  0.84428700  0.65374700  0.83346500  1
  C  1773  1  0.96250000  0.68512200  0.84187900  1
  C  1774  1  0.98630800  0.64858000  0.83453200  1
  C  1775  1  0.03369420  0.65009400  0.83348800  1
  C  1776  1  0.05903020  0.68745100  0.83969600  1
  C  1777  1  0.03318620  0.72245800  0.84733900  1
  C  1785  1  0.93900700  0.56784000  0.40878200  1
  C  1786  1  0.97443300  0.59249800  0.40080800  1
  C  1787  1  0.97353000  0.63995900  0.39958900  1
  C  1788  1  0.93668000  0.66433500  0.40644100  1
  C  1790  1  0.90252900  0.59433600  0.41498400  1
  C  1791  1  0.93475600  0.71239900  0.40678200  1
  C  1792  1  0.89854500  0.73633100  0.41430400  1
  C  1793  1  0.90028700  0.78370000  0.41536100  1
  C  1794  1  0.93754900  0.80889200  0.40899300  1
  C  1795  1  0.97216300  0.78293600  0.40115100  1
  C  1803  1  0.43934400  0.31047800  0.90878500  1
  C  1804  1  0.40394000  0.28582400  0.90079500  1
  C  1805  1  0.40486600  0.23836800  0.89956200  1
  C  1806  1  0.44171100  0.21398800  0.90641700  1
  C  1808  1  0.47583500  0.28398800  0.91497800  1
  C  1809  1  0.44362300  0.16592600  0.90676000  1
  C  1810  1  0.47983400  0.14198700  0.91427700  1
  C  1811  1  0.47807400  0.09461820  0.91534200  1
  C  1812  1  0.44079900  0.06943720  0.90898100  1
  C  1813  1  0.40619600  0.09540020  0.90113400  1
  C  1821  1  0.81834500  0.18878400  0.15890900  1
  C  1822  1  0.84307900  0.15342200  0.15093200  1
  C  1823  1  0.89056300  0.15429800  0.14980700  1
  C  1824  1  0.91489500  0.19106000  0.15675200  1
  C  1826  1  0.84480400  0.22517000  0.16521800  1
  C  1827  1  0.96296700  0.19295700  0.15716000  1
  C  1828  1  0.98686600  0.22916100  0.16470500  1
  C  1829  1  0.03423520  0.22740600  0.16581400  1
  C  1830  1  0.05947020  0.19014700  0.15946600  1
  C  1831  1  0.03354820  0.15551600  0.15161600  1
  C  1839  1  0.55995300  0.68953800  0.65891300  1
  C  1840  1  0.53521100  0.72491300  0.65094700  1
  C  1841  1  0.48772800  0.72402800  0.64981800  1
  C  1842  1  0.46340200  0.68725500  0.65675800  1
  C  1844  1  0.53349700  0.65315200  0.66522300  1
  C  1845  1  0.41532800  0.68534400  0.65716400  1
  C  1846  1  0.39143200  0.64913300  0.66470400  1
  C  1847  1  0.34406300  0.65088100  0.66581000  1
  C  1848  1  0.31882500  0.68813400  0.65946200  1
  C  1849  1  0.34474300  0.72277800  0.65162000  1
  N  357  1  0.96382600  0.98301700  0.98133600  1
  N  364  1  0.03422300  0.98850700  0.01782800  1
  N  375  1  0.53512100  0.01593400  0.48133000  1
  N  382  1  0.46472300  0.01051200  0.51782500  1
  N  393  1  0.26537200  0.71315700  0.23122600  1
  N  400  1  0.25986600  0.78377500  0.26773800  1
  N  411  1  0.23352400  0.28579500  0.73123200  1
  N  418  1  0.23904400  0.21518500  0.76774300  1
  N  429  1  0.73260100  0.28609900  0.76763200  1
  N  436  1  0.73848000  0.21594600  0.73115700  1
  N  447  1  0.76638000  0.71276800  0.26762800  1
  N  454  1  0.76050500  0.78290900  0.23115200  1
  N  465  1  0.46778000  0.51446600  0.48057900  1
  N  472  1  0.53352500  0.48504300  0.51840300  1
  N  483  1  0.03112900  0.48445500  0.98057400  1
  N  490  1  0.96537900  0.51386000  0.01839800  1
  N  501  1  0.85221800  0.92689200  0.10282600  1
  N  508  1  0.81832100  0.89650900  0.14581700  1
  N  519  1  0.64672900  0.07198600  0.60282100  1
  N  526  1  0.68062300  0.10236000  0.64581400  1
  N  537  1  0.32155500  0.60158300  0.35263800  1
  N  544  1  0.35200200  0.56765200  0.39559800  1
  N  555  1  0.17739000  0.39736800  0.85264500  1
  N  562  1  0.14693500  0.43129200  0.89559900  1
  N  573  1  0.64612400  0.92675300  0.39685100  1
  N  580  1  0.68182700  0.89770300  0.35394300  1
  N  591  1  0.85278300  0.07212500  0.89686300  1
  N  598  1  0.81708700  0.10117400  0.85395600  1
  N  609  1  0.17631900  0.60347700  0.14620800  1
  N  616  1  0.14555100  0.56979900  0.10323300  1
  N  627  1  0.32258700  0.39548100  0.64620900  1
  N  634  1  0.35335800  0.42914500  0.60323700  1
  N  645  1  0.15169400  0.06504300  0.89551200  1
  N  652  1  0.18340100  0.09857700  0.85254600  1
  N  663  1  0.34720300  0.93396100  0.39550800  1
  N  670  1  0.31552000  0.90040500  0.35254200  1
  N  681  1  0.68075100  0.39978300  0.64633200  1
  N  688  1  0.65004700  0.43301700  0.60333300  1
  N  699  1  0.81816200  0.59912400  0.14631900  1
  N  706  1  0.84886600  0.56589600  0.10332500  1
  N  717  1  0.34778400  0.06582500  0.60252600  1
  N  724  1  0.31425300  0.09744800  0.64547600  1
  N  735  1  0.15118500  0.93317600  0.10252500  1
  N  742  1  0.18471600  0.90154500  0.14547200  1
  N  753  1  0.81917000  0.39786200  0.85270800  1
  N  760  1  0.85008700  0.43061300  0.89573800  1
  N  771  1  0.67977400  0.60104800  0.35271100  1
  N  778  1  0.64884600  0.56832100  0.39573800  1
  N  789  1  0.03563400  0.19975600  0.08479900  1
  N  796  1  0.96984700  0.29700100  0.09866900  1
  N  807  1  0.46326200  0.79917100  0.58479900  1
  N  814  1  0.52905700  0.70193100  0.59867300  1
  N  825  1  0.04872100  0.78474600  0.33469400  1
  N  832  1  0.95122000  0.71841300  0.34797300  1
  N  843  1  0.45023000  0.21419900  0.83469000  1
  N  850  1  0.54773700  0.28051900  0.84796600  1
  N  861  1  0.46324100  0.20027200  0.41377200  1
  N  868  1  0.53003100  0.29750100  0.40052200  1
  N  879  1  0.03574600  0.79866400  0.91375700  1
  N  886  1  0.96895400  0.70144400  0.90050100  1
  N  897  1  0.45076100  0.78506000  0.16408100  1
  N  904  1  0.54811900  0.71827700  0.15094000  1
  N  915  1  0.04815400  0.21386800  0.66408600  1
  N  922  1  0.95078800  0.28063800  0.65094600  1
  N  1285  1  0.40352000  0.42271100  0.98133600  1
  N  1292  1  0.47391700  0.42820100  0.01782800  1
  N  1303  1  0.97481500  0.45562800  0.48133000  1
  N  1310  1  0.90441700  0.45020600  0.51782500  1
  N  1321  1  0.70506600  0.15285100  0.23122600  1
  N  1328  1  0.69956000  0.22346900  0.26773800  1
  N  1339  1  0.67321800  0.72548900  0.73123200  1
  N  1346  1  0.67873800  0.65487900  0.76774300  1
  N  1357  1  0.17229500  0.72579300  0.76763200  1
  N  1364  1  0.17817400  0.65564000  0.73115700  1
  N  1375  1  0.20607400  0.15246200  0.26762800  1
  N  1382  1  0.20019900  0.22260300  0.23115200  1
  N  1393  1  0.90747400  0.95416000  0.48057900  1
  N  1400  1  0.97321900  0.92473700  0.51840300  1
  N  1411  1  0.47082300  0.92414900  0.98057400  1
  N  1418  1  0.40507300  0.95355400  0.01839800  1
  N  1429  1  0.29191200  0.36658600  0.10282600  1
  N  1436  1  0.25801500  0.33620300  0.14581700  1
  N  1447  1  0.08642320  0.51168000  0.60282100  1
  N  1454  1  0.12031700  0.54205400  0.64581400  1
  N  1465  1  0.76124900  0.04127720  0.35263800  1
  N  1472  1  0.79169600  0.00734624  0.39559800  1
  N  1483  1  0.61708400  0.83706200  0.85264500  1
  N  1490  1  0.58662900  0.87098600  0.89559900  1
  N  1501  1  0.08581820  0.36644700  0.39685100  1
  N  1508  1  0.12152100  0.33739700  0.35394300  1
  N  1519  1  0.29247700  0.51181900  0.89686300  1
  N  1526  1  0.25678100  0.54086800  0.85395600  1
  N  1537  1  0.61601300  0.04317120  0.14620800  1
  N  1544  1  0.58524500  0.00949324  0.10323300  1
  N  1555  1  0.76228100  0.83517500  0.64620900  1
  N  1562  1  0.79305200  0.86883900  0.60323700  1
  N  1573  1  0.59138800  0.50473700  0.89551200  1
  N  1580  1  0.62309500  0.53827100  0.85254600  1
  N  1591  1  0.78689700  0.37365500  0.39550800  1
  N  1598  1  0.75521400  0.34009900  0.35254200  1
  N  1609  1  0.12044500  0.83947700  0.64633200  1
  N  1616  1  0.08974120  0.87271100  0.60333300  1
  N  1627  1  0.25785600  0.03881820  0.14631900  1
  N  1634  1  0.28856000  0.00559024  0.10332500  1
  N  1645  1  0.78747800  0.50551900  0.60252600  1
  N  1652  1  0.75394700  0.53714200  0.64547600  1
  N  1663  1  0.59087900  0.37287000  0.10252500  1
  N  1670  1  0.62441000  0.34123900  0.14547200  1
  N  1681  1  0.25886400  0.83755600  0.85270800  1
  N  1688  1  0.28978100  0.87030700  0.89573800  1
  N  1699  1  0.11946800  0.04074220  0.35271100  1
  N  1706  1  0.08854020  0.00801524  0.39573800  1
  N  1717  1  0.47532800  0.63945000  0.08479900  1
  N  1724  1  0.40954100  0.73669500  0.09866900  1
  N  1735  1  0.90295600  0.23886500  0.58479900  1
  N  1742  1  0.96875100  0.14162500  0.59867300  1
  N  1753  1  0.48841500  0.22444000  0.33469400  1
  N  1760  1  0.39091400  0.15810700  0.34797300  1
  N  1771  1  0.88992400  0.65389300  0.83469000  1
  N  1778  1  0.98743100  0.72021300  0.84796600  1
  N  1789  1  0.90293500  0.63996600  0.41377200  1
  N  1796  1  0.96972500  0.73719500  0.40052200  1
  N  1807  1  0.47544000  0.23835800  0.91375700  1
  N  1814  1  0.40864800  0.14113800  0.90050100  1
  N  1825  1  0.89045500  0.22475400  0.16408100  1
  N  1832  1  0.98781300  0.15797100  0.15094000  1
  N  1843  1  0.48784800  0.65356200  0.66408600  1
  N  1850  1  0.39048200  0.72033200  0.65094600  1
