# generated using pymatgen
data_H10C10N2O
_symmetry_space_group_name_H-M   'P 1'
_cell_length_a   23.75240000
_cell_length_b   39.74060000
_cell_length_c   39.74060000
_cell_angle_alpha   120.00000000
_cell_angle_beta   90.00000000
_cell_angle_gamma   90.00000000
_symmetry_Int_Tables_number   1
_chemical_formula_structural   H10C10N2O
_chemical_formula_sum   'H480 C480 N96 O48'
_cell_volume   32486.80260243
_cell_formula_units_Z   48
loop_
 _symmetry_equiv_pos_site_id
 _symmetry_equiv_pos_as_xyz
  1  'x, y, z'
loop_
 _atom_site_type_symbol
 _atom_site_label
 _atom_site_symmetry_multiplicity
 _atom_site_fract_x
 _atom_site_fract_y
 _atom_site_fract_z
 _atom_site_occupancy
  C  1  1  0.78934700  0.55659500  0.70580600  1
  C  2  1  0.85534800  0.55403100  0.70416300  1
  C  3  1  0.76453300  0.51939100  0.66955400  1
  C  4  1  0.78690000  0.51413000  0.62994000  1
  C  7  1  0.85303400  0.51375300  0.63036200  1
  C  8  1  0.87874000  0.55097900  0.66597900  1
  C  13  1  0.85916700  0.58741300  0.66392100  1
  C  14  1  0.79326200  0.59061700  0.66458300  1
  C  17  1  0.76959300  0.55220400  0.62940400  1
  C  20  1  0.77125100  0.59337700  0.70316700  1
  C  23  1  0.78936400  0.15228000  0.44585900  1
  C  24  1  0.85536600  0.15321000  0.44842200  1
  C  25  1  0.76456200  0.15323100  0.48306600  1
  C  26  1  0.78694400  0.11888200  0.48832600  1
  C  29  1  0.85307600  0.11968800  0.48870200  1
  C  30  1  0.87877300  0.11808100  0.45147200  1
  C  35  1  0.85920200  0.07958800  0.41503900  1
  C  36  1  0.79329700  0.07703800  0.41183800  1
  C  39  1  0.76964300  0.08027200  0.45025300  1
  C  42  1  0.77126900  0.11285900  0.40908200  1
  C  45  1  0.78936000  0.29661600  0.85016100  1
  C  46  1  0.85536200  0.29827000  0.84924700  1
  C  47  1  0.76453700  0.33286000  0.84919600  1
  C  48  1  0.78688800  0.37248100  0.88354900  1
  C  51  1  0.85302300  0.37207100  0.88275600  1
  C  52  1  0.87874000  0.33646400  0.88437800  1
  C  57  1  0.85916300  0.33852400  0.92287100  1
  C  58  1  0.79325900  0.33785100  0.92540000  1
  C  61  1  0.76957900  0.37301900  0.92215900  1
  C  64  1  0.77125700  0.29926200  0.88958300  1
  C  67  1  0.78936900  0.44712600  0.29543800  1
  C  68  1  0.85537400  0.44968200  0.29707300  1
  C  69  1  0.76457300  0.48433700  0.33169300  1
  C  70  1  0.78694700  0.48959300  0.37130500  1
  C  73  1  0.85308000  0.48996300  0.37087300  1
  C  74  1  0.87877400  0.45273200  0.33525500  1
  C  79  1  0.85919600  0.41630000  0.33731300  1
  C  80  1  0.79329200  0.41310900  0.33665900  1
  C  83  1  0.76963600  0.45152100  0.37184000  1
  C  86  1  0.77126500  0.41034800  0.29808000  1
  C  89  1  0.78935900  0.85141400  0.55539100  1
  C  90  1  0.85536100  0.85049100  0.55282600  1
  C  91  1  0.76454500  0.85045700  0.51818600  1
  C  92  1  0.78690900  0.88481000  0.51292200  1
  C  95  1  0.85304200  0.88401000  0.51254300  1
  C  96  1  0.87875100  0.88562200  0.54976900  1
  C  101  1  0.85917700  0.92411200  0.58620200  1
  C  102  1  0.79327500  0.92665900  0.58940800  1
  C  105  1  0.76960200  0.92342100  0.55099500  1
  C  108  1  0.77126100  0.89083600  0.59217100  1
  C  111  1  0.78937100  0.70704000  0.15105600  1
  C  112  1  0.85537400  0.70540500  0.15198100  1
  C  113  1  0.76457100  0.67078400  0.15200900  1
  C  114  1  0.78695100  0.63117200  0.11765900  1
  C  117  1  0.85308300  0.63160400  0.11846300  1
  C  118  1  0.87877700  0.66722200  0.11685100  1
  C  123  1  0.85920100  0.66516200  0.07835800  1
  C  124  1  0.79329500  0.66581300  0.07581000  1
  C  127  1  0.76964300  0.63063400  0.07904900  1
  C  130  1  0.77126900  0.70439300  0.11163300  1
  C  133  1  0.71788400  0.84684900  0.29350000  1
  C  134  1  0.65187500  0.84439400  0.29401500  1
  C  135  1  0.73929700  0.84737400  0.33154800  1
  C  136  1  0.71496700  0.88176600  0.37017900  1
  C  139  1  0.64958800  0.87826700  0.36795000  1
  C  140  1  0.62612600  0.87913500  0.33152500  1
  C  145  1  0.64555400  0.91813400  0.33432000  1
  C  146  1  0.71148100  0.92314100  0.33573900  1
  C  149  1  0.73249300  0.92059500  0.37204300  1
  C  152  1  0.73552000  0.88715300  0.29781600  1
  C  155  1  0.71793100  0.70898400  0.55279500  1
  C  156  1  0.65192500  0.70846400  0.54981400  1
  C  157  1  0.73935900  0.67093700  0.51528300  1
  C  158  1  0.71503100  0.63230500  0.51104200  1
  C  161  1  0.64965200  0.63452700  0.50975700  1
  C  162  1  0.62617500  0.67095300  0.54704300  1
  C  167  1  0.64558000  0.66816200  0.58325100  1
  C  168  1  0.71150600  0.66675100  0.58685500  1
  C  171  1  0.73253900  0.63044500  0.54801500  1
  C  174  1  0.73554500  0.70467600  0.58879100  1
  C  177  1  0.71793600  0.44970100  0.15559000  1
  C  178  1  0.65193000  0.45268000  0.15805400  1
  C  179  1  0.73935700  0.48721600  0.15505600  1
  C  180  1  0.71502200  0.49145900  0.12066900  1
  C  183  1  0.64964400  0.49274200  0.12418000  1
  C  184  1  0.62617100  0.45545300  0.12331900  1
  C  189  1  0.64557600  0.41924700  0.08431500  1
  C  190  1  0.71150200  0.41564600  0.07929900  1
  C  193  1  0.73252800  0.45448900  0.08183600  1
  C  196  1  0.73555000  0.41370600  0.11528300  1
  C  199  1  0.71791800  0.15679500  0.70772200  1
  C  200  1  0.65191200  0.15925600  0.70720800  1
  C  201  1  0.73933900  0.15626900  0.66967600  1
  C  202  1  0.71500500  0.12188400  0.63104300  1
  C  205  1  0.64962600  0.12539300  0.63327100  1
  C  206  1  0.62615600  0.12452200  0.66969300  1
  C  211  1  0.64556800  0.08551700  0.66689200  1
  C  212  1  0.71149400  0.08050500  0.66547700  1
  C  215  1  0.73251500  0.08305200  0.62917600  1
  C  218  1  0.73553700  0.11648700  0.70340600  1
  C  221  1  0.71785600  0.29471600  0.44848900  1
  C  222  1  0.65184900  0.29523000  0.45145700  1
  C  223  1  0.73926700  0.33276400  0.48601000  1
  C  224  1  0.71493800  0.37139500  0.49024800  1
  C  227  1  0.64955900  0.36916600  0.49151500  1
  C  228  1  0.62610000  0.33274000  0.45422300  1
  C  233  1  0.64552900  0.33553000  0.41801800  1
  C  234  1  0.71145600  0.33694700  0.41443100  1
  C  237  1  0.73246800  0.37325500  0.45328100  1
  C  240  1  0.73549500  0.29902600  0.41249900  1
  C  243  1  0.71787600  0.55395900  0.84561700  1
  C  244  1  0.65186700  0.55099500  0.84316100  1
  C  245  1  0.73928100  0.51643500  0.84613600  1
  C  246  1  0.71495000  0.51218900  0.88052300  1
  C  249  1  0.64957100  0.51092200  0.87702400  1
  C  250  1  0.62611300  0.54822000  0.87789800  1
  C  255  1  0.64554100  0.58442000  0.91689900  1
  C  256  1  0.71146900  0.58800500  0.92190700  1
  C  259  1  0.73247600  0.54915200  0.91935700  1
  C  262  1  0.73551100  0.58994500  0.88592100  1
  C  265  1  0.21546400  0.44755900  0.29581300  1
  C  266  1  0.14943700  0.45034500  0.29746600  1
  C  267  1  0.24039600  0.48460300  0.33207500  1
  C  268  1  0.21780900  0.48964700  0.37151300  1
  C  271  1  0.15167400  0.48960100  0.37063900  1
  C  272  1  0.12461400  0.45251100  0.33508000  1
  C  277  1  0.14552600  0.41659400  0.33777000  1
  C  278  1  0.21138200  0.41339000  0.33696300  1
  C  281  1  0.23517600  0.45166500  0.37210000  1
  C  284  1  0.23322600  0.41066300  0.29835500  1
  C  287  1  0.21544700  0.85135100  0.55492100  1
  C  288  1  0.14941600  0.85021300  0.55213800  1
  C  289  1  0.24036800  0.85056600  0.51787400  1
  C  290  1  0.21777600  0.88495800  0.51282800  1
  C  293  1  0.15163900  0.88412700  0.51287800  1
  C  294  1  0.12458600  0.88565900  0.54997100  1
  C  299  1  0.14549800  0.92426700  0.58588600  1
  C  300  1  0.21135200  0.92666900  0.58909000  1
  C  303  1  0.23513800  0.92352700  0.55081000  1
  C  306  1  0.23321000  0.89078900  0.59181600  1
  C  309  1  0.21545400  0.70669600  0.15113600  1
  C  310  1  0.14942400  0.70503300  0.15226200  1
  C  311  1  0.24039200  0.67044300  0.15192900  1
  C  312  1  0.21782200  0.63099800  0.11753700  1
  C  315  1  0.15168500  0.63186000  0.11835600  1
  C  316  1  0.12461400  0.66741100  0.11681400  1
  C  321  1  0.14553000  0.66471800  0.07820800  1
  C  322  1  0.21138400  0.66553700  0.07582200  1
  C  325  1  0.23519000  0.63041000  0.07896700  1
  C  328  1  0.23321800  0.70415200  0.11170000  1
  C  331  1  0.21543600  0.55612100  0.70540900  1
  C  332  1  0.14940800  0.55334100  0.70376200  1
  C  333  1  0.24035600  0.51907000  0.66914500  1
  C  334  1  0.21776700  0.51402800  0.62970900  1
  C  337  1  0.15163200  0.51408100  0.63058800  1
  C  338  1  0.12458000  0.55117600  0.66614800  1
  C  343  1  0.14549600  0.58709200  0.66345800  1
  C  344  1  0.21135000  0.59028500  0.66426000  1
  C  347  1  0.23513600  0.55201000  0.62912400  1
  C  350  1  0.23320600  0.59301600  0.70286800  1
  C  353  1  0.21546000  0.15235100  0.44629600  1
  C  354  1  0.14943000  0.15348600  0.44908700  1
  C  355  1  0.24039200  0.15313800  0.48334500  1
  C  356  1  0.21780400  0.11874700  0.48839100  1
  C  359  1  0.15167000  0.11957200  0.48834500  1
  C  360  1  0.12460800  0.11803800  0.45125500  1
  C  365  1  0.14551800  0.07943100  0.41533800  1
  C  366  1  0.21137400  0.07703100  0.41213100  1
  C  369  1  0.23517000  0.08017300  0.45040700  1
  C  372  1  0.23321800  0.11291400  0.40940400  1
  C  375  1  0.21543600  0.29704400  0.85011000  1
  C  376  1  0.14940800  0.29869100  0.84897600  1
  C  377  1  0.24035800  0.33333333  0.84935033  1
  C  378  1  0.21776400  0.37274400  0.88371400  1
  C  381  1  0.15163000  0.37186500  0.88288700  1
  C  382  1  0.12457800  0.33630800  0.88442300  1
  C  387  1  0.14549600  0.33900100  0.92302900  1
  C  388  1  0.21135000  0.33820000  0.92543000  1
  C  391  1  0.23513400  0.37333700  0.92228600  1
  C  394  1  0.23320400  0.29959200  0.88955000  1
  C  397  1  0.28742100  0.15686800  0.70777500  1
  C  398  1  0.35344200  0.15933700  0.70683000  1
  C  399  1  0.26551000  0.15607600  0.66976500  1
  C  400  1  0.28955400  0.12151000  0.63123600  1
  C  403  1  0.35493200  0.12471200  0.63349900  1
  C  404  1  0.38018000  0.12413600  0.66986800  1
  C  409  1  0.35939000  0.08515300  0.66683900  1
  C  410  1  0.29341000  0.08044300  0.66578700  1
  C  413  1  0.27193400  0.08284300  0.62953100  1
  C  416  1  0.26996600  0.11665000  0.70379600  1
  C  419  1  0.28736200  0.29467500  0.44841300  1
  C  420  1  0.35337800  0.29562000  0.45184100  1
  C  421  1  0.26543800  0.33268600  0.48562600  1
  C  422  1  0.28948600  0.37121600  0.48959200  1
  C  425  1  0.35486400  0.36895300  0.49054600  1
  C  426  1  0.38012600  0.33258200  0.45360700  1
  C  431  1  0.35935900  0.33561500  0.41765000  1
  C  432  1  0.29338000  0.33666200  0.41397500  1
  C  435  1  0.27188800  0.37291900  0.45262400  1
  C  438  1  0.26993200  0.29865300  0.41217200  1
  C  441  1  0.28736400  0.55402100  0.84562700  1
  C  442  1  0.35338400  0.55059700  0.84314100  1
  C  443  1  0.26544800  0.51680600  0.84642000  1
  C  444  1  0.28950300  0.51283800  0.88098000  1
  C  447  1  0.35488200  0.51188700  0.87776600  1
  C  448  1  0.38013400  0.54882800  0.87833700  1
  C  453  1  0.35936800  0.58478300  0.91732900  1
  C  454  1  0.29338800  0.58845200  0.92204900  1
  C  457  1  0.27190200  0.54980200  0.91965200  1
  C  460  1  0.26993400  0.59026100  0.88584700  1
  C  463  1  0.28738800  0.84688600  0.29347000  1
  C  464  1  0.35340600  0.84440500  0.29441200  1
  C  465  1  0.26547200  0.84767400  0.33147600  1
  C  466  1  0.28952000  0.88223200  0.37000900  1
  C  469  1  0.35489800  0.87901900  0.36774300  1
  C  470  1  0.38015000  0.87959800  0.33137800  1
  C  475  1  0.35937800  0.91859100  0.33442000  1
  C  476  1  0.29340200  0.92330900  0.33547100  1
  C  479  1  0.27191700  0.92090500  0.37172000  1
  C  482  1  0.26995100  0.88710800  0.29745700  1
  C  485  1  0.28744200  0.70902400  0.55276900  1
  C  486  1  0.35346200  0.70807800  0.54935600  1
  C  487  1  0.26553200  0.67101300  0.51555100  1
  C  488  1  0.28957400  0.63248500  0.51159100  1
  C  491  1  0.35495300  0.63474600  0.51065300  1
  C  492  1  0.38019700  0.67111600  0.54759800  1
  C  497  1  0.35940300  0.66808900  0.58355200  1
  C  498  1  0.29342200  0.66704000  0.58720800  1
  C  501  1  0.27194600  0.63078300  0.54855300  1
  C  504  1  0.26998000  0.70504600  0.58900700  1
  C  507  1  0.28743000  0.44972200  0.15563700  1
  C  508  1  0.35345000  0.45313200  0.15810800  1
  C  509  1  0.26552600  0.48694400  0.15485100  1
  C  510  1  0.28957200  0.49091100  0.12028600  1
  C  513  1  0.35495300  0.49184600  0.12349100  1
  C  514  1  0.38019200  0.45489800  0.12290900  1
  C  519  1  0.35940100  0.41894700  0.08392200  1
  C  520  1  0.29341800  0.41529200  0.07920900  1
  C  523  1  0.27195100  0.45395200  0.08161900  1
  C  526  1  0.26997200  0.41348800  0.11541600  1
  C  529  1  0.72543700  0.58849900  0.80453400  1
  C  530  1  0.73960400  0.55732700  0.81117300  1
  C  531  1  0.77272500  0.52773800  0.78124100  1
  C  533  1  0.77070800  0.55781100  0.74244100  1
  C  537  1  0.71862100  0.65684500  0.84481800  1
  C  541  1  0.72537300  0.21909600  0.41397500  1
  C  542  1  0.73958700  0.25690700  0.44512500  1
  C  543  1  0.77268000  0.25657000  0.47472800  1
  C  545  1  0.77070800  0.18769800  0.44464800  1
  C  549  1  0.71863100  0.19102900  0.34562200  1
  C  553  1  0.72546700  0.19788300  0.78334600  1
  C  554  1  0.73964700  0.19123600  0.74553400  1
  C  555  1  0.77276800  0.22116700  0.74587400  1
  C  557  1  0.77073800  0.25997600  0.81474400  1
  C  561  1  0.71864200  0.15760200  0.81140800  1
  C  565  1  0.72543900  0.41520100  0.19671400  1
  C  566  1  0.73968000  0.44633500  0.19003100  1
  C  567  1  0.77273000  0.47595700  0.21998700  1
  C  569  1  0.77072500  0.44590400  0.25880300  1
  C  573  1  0.71874800  0.34684800  0.15642900  1
  C  577  1  0.72546700  0.78460500  0.58732000  1
  C  578  1  0.73965100  0.74679300  0.55615900  1
  C  579  1  0.77276700  0.74712800  0.52656300  1
  C  581  1  0.77072200  0.81599900  0.55661500  1
  C  585  1  0.71864500  0.81268200  0.65566500  1
  C  589  1  0.72539900  0.80574500  0.21787800  1
  C  590  1  0.73961300  0.81240500  0.25568900  1
  C  591  1  0.77270300  0.78246200  0.25534800  1
  C  593  1  0.77072100  0.74367000  0.18647400  1
  C  597  1  0.71866800  0.84603800  0.18981700  1
  C  601  1  0.27998400  0.41554100  0.19712900  1
  C  602  1  0.26579600  0.44658300  0.19028800  1
  C  603  1  0.23265400  0.47622200  0.22018500  1
  C  605  1  0.23445600  0.44634200  0.25919100  1
  C  609  1  0.28723400  0.34716300  0.15708400  1
  C  613  1  0.28003800  0.78469500  0.58692400  1
  C  614  1  0.26580600  0.74680900  0.55589900  1
  C  615  1  0.23268600  0.74706600  0.52625100  1
  C  617  1  0.23444800  0.81594900  0.55613800  1
  C  621  1  0.28722100  0.81303200  0.65530600  1
  C  625  1  0.27995000  0.80538900  0.21779800  1
  C  626  1  0.26575000  0.81223600  0.25568200  1
  C  627  1  0.23260800  0.78233800  0.25542100  1
  C  629  1  0.23442200  0.74332500  0.18653900  1
  C  633  1  0.28720400  0.84543300  0.18946700  1
  C  637  1  0.27996700  0.58816100  0.80409300  1
  C  638  1  0.26571200  0.55715600  0.81097700  1
  C  639  1  0.23263200  0.52748700  0.78105500  1
  C  641  1  0.23442800  0.55734700  0.74203400  1
  C  645  1  0.28709400  0.65654500  0.84414300  1
  C  649  1  0.27993800  0.21900200  0.41424900  1
  C  650  1  0.26572000  0.25688800  0.44527500  1
  C  651  1  0.23261200  0.25663400  0.47493100  1
  C  653  1  0.23444300  0.18775100  0.44507200  1
  C  657  1  0.28717400  0.19066100  0.34587300  1
  C  661  1  0.28001800  0.19838400  0.78344900  1
  C  662  1  0.26578600  0.19152000  0.74556200  1
  C  663  1  0.23266400  0.22142800  0.74582400  1
  C  665  1  0.23443200  0.26042400  0.81470700  1
  C  669  1  0.28719600  0.15833100  0.81177900  1
  C  673  1  0.69700600  0.65247300  0.64437400  1
  C  674  1  0.73152500  0.66170000  0.62064300  1
  C  675  1  0.79010900  0.65774600  0.62484800  1
  C  677  1  0.77449400  0.62384300  0.65936400  1
  C  681  1  0.62367500  0.69168600  0.68347100  1
  C  685  1  0.69699400  0.99496600  0.35011400  1
  C  686  1  0.73151700  0.96198800  0.34081700  1
  C  687  1  0.79008800  0.97018700  0.34489300  1
  C  689  1  0.77452400  0.03858600  0.37862500  1
  C  693  1  0.62399100  0.99474500  0.31062100  1
  C  697  1  0.69700100  0.35808600  0.00752500  1
  C  698  1  0.73152900  0.38188900  0.04044000  1
  C  699  1  0.79010900  0.37764400  0.03231000  1
  C  701  1  0.77450300  0.34308300  0.96383800  1
  C  705  1  0.62367600  0.31899700  0.00765500  1
  C  709  1  0.69698200  0.35132300  0.35698600  1
  C  710  1  0.73149500  0.34202100  0.38066000  1
  C  711  1  0.79005900  0.34610000  0.37653600  1
  C  713  1  0.77452000  0.37991300  0.34190400  1
  C  717  1  0.62400100  0.31182300  0.31769400  1
  C  721  1  0.69700300  0.00872200  0.65124800  1
  C  722  1  0.73153000  0.04164400  0.66036800  1
  C  723  1  0.79012100  0.03352900  0.65648600  1
  C  725  1  0.77450900  0.96510300  0.62263400  1
  C  729  1  0.62366600  0.00885300  0.69046200  1
  C  733  1  0.69698600  0.64545300  0.99373500  1
  C  734  1  0.73150400  0.62177200  0.96075600  1
  C  735  1  0.79007600  0.62589200  0.96895600  1
  C  737  1  0.77451900  0.66056700  0.03735600  1
  C  741  1  0.62397800  0.68472500  0.99351700  1
  C  745  1  0.30760600  0.35109600  0.35653900  1
  C  746  1  0.27322200  0.34155500  0.38009500  1
  C  747  1  0.21460500  0.34544600  0.37589600  1
  C  749  1  0.23007700  0.38009300  0.34209200  1
  C  753  1  0.37982200  0.31303600  0.31526400  1
  C  757  1  0.30761900  0.00854800  0.65126000  1
  C  758  1  0.27323500  0.04166400  0.66087300  1
  C  759  1  0.21462800  0.03353300  0.65685900  1
  C  761  1  0.23005200  0.96510300  0.62237200  1
  C  765  1  0.37947900  0.00545900  0.68962800  1
  C  769  1  0.30761400  0.64593500  0.99389800  1
  C  770  1  0.27322000  0.62230100  0.96084400  1
  C  771  1  0.21460500  0.62654000  0.96890100  1
  C  773  1  0.23006600  0.66039900  0.03740300  1
  C  777  1  0.37983500  0.68720200  0.99711300  1
  C  781  1  0.30761900  0.65251700  0.64457500  1
  C  782  1  0.27324400  0.66212800  0.62107400  1
  C  783  1  0.21464300  0.65810900  0.62519000  1
  C  785  1  0.23004800  0.62355400  0.65910900  1
  C  789  1  0.37945200  0.69089300  0.68605700  1
  C  793  1  0.30761400  0.99516500  0.34985100  1
  C  794  1  0.27322000  0.96210500  0.34042200  1
  C  795  1  0.21459600  0.97015000  0.34424000  1
  C  797  1  0.23006400  0.03860700  0.37883500  1
  C  801  1  0.37984300  0.99837500  0.31179900  1
  C  805  1  0.30762300  0.35792500  0.00731400  1
  C  806  1  0.27324400  0.38143100  0.04042900  1
  C  807  1  0.21463600  0.37731700  0.03230000  1
  C  809  1  0.23005600  0.34335700  0.96386500  1
  C  813  1  0.37948600  0.31646600  0.00422400  1
  C  817  1  0.02776200  0.58162500  0.69633900  1
  C  818  1  0.06042900  0.55084800  0.66681800  1
  C  819  1  0.02824000  0.52014300  0.63723800  1
  C  821  1  0.94155000  0.54993800  0.66621400  1
  C  825  1  0.03237100  0.65073800  0.73564200  1
  C  829  1  0.02778600  0.11780400  0.42082000  1
  C  830  1  0.06045800  0.11904400  0.45158700  1
  C  831  1  0.02827400  0.12015700  0.48229000  1
  C  833  1  0.94158000  0.11935900  0.45250900  1
  C  837  1  0.03237300  0.08796000  0.35170200  1
  C  841  1  0.02776200  0.30611600  0.88468100  1
  C  842  1  0.06042700  0.33563800  0.88342700  1
  C  843  1  0.02823800  0.36521400  0.88229100  1
  C  845  1  0.94154900  0.33623200  0.88310600  1
  C  849  1  0.03237100  0.26682200  0.91450000  1
  C  853  1  0.02779000  0.42207600  0.30488100  1
  C  854  1  0.06046500  0.45284300  0.33441000  1
  C  855  1  0.02827800  0.48354400  0.36400100  1
  C  857  1  0.94158400  0.45376700  0.33501400  1
  C  861  1  0.03237900  0.35296000  0.26560800  1
  C  865  1  0.02777200  0.88591100  0.58041800  1
  C  866  1  0.06043800  0.88466000  0.54964400  1
  C  867  1  0.02824900  0.88352800  0.51893300  1
  C  869  1  0.94155900  0.88434500  0.54873000  1
  C  873  1  0.03237500  0.91572100  0.64952900  1
  C  877  1  0.02778800  0.69760000  0.11656700  1
  C  878  1  0.06046500  0.66807700  0.11781400  1
  C  879  1  0.02828500  0.63848600  0.11892600  1
  C  881  1  0.94158400  0.66746500  0.11812600  1
  C  885  1  0.03237100  0.73686400  0.08671200  1
  C  889  1  0.47691600  0.87904300  0.30032300  1
  C  890  1  0.44432100  0.87740400  0.32968300  1
  C  891  1  0.47668400  0.87458200  0.35826500  1
  C  893  1  0.56332000  0.87679900  0.33002000  1
  C  897  1  0.47545200  0.90684200  0.25893600  1
  C  901  1  0.47695600  0.70217000  0.57811200  1
  C  902  1  0.44437000  0.67280800  0.54710800  1
  C  903  1  0.47673800  0.64420400  0.51572900  1
  C  905  1  0.56337000  0.67245500  0.54619700  1
  C  909  1  0.47542500  0.74350200  0.64729700  1
  C  913  1  0.47694700  0.42437800  0.12344700  1
  C  914  1  0.44436300  0.45538500  0.12509600  1
  C  915  1  0.47673600  0.48677700  0.12790300  1
  C  917  1  0.56336600  0.45629800  0.12566900  1
  C  921  1  0.47542500  0.35519400  0.09561000  1
  C  925  1  0.47694100  0.12467400  0.70092100  1
  C  926  1  0.44435000  0.12632200  0.67156300  1
  C  927  1  0.47672200  0.12909800  0.64295900  1
  C  929  1  0.56334900  0.12686900  0.67120100  1
  C  933  1  0.47542500  0.09684000  0.74227200  1
  C  937  1  0.47689000  0.30152700  0.42311300  1
  C  938  1  0.44429600  0.33088900  0.45411200  1
  C  939  1  0.47665400  0.35948000  0.48551000  1
  C  941  1  0.56329400  0.33123500  0.45505400  1
  C  945  1  0.47542100  0.26014200  0.35392900  1
  C  949  1  0.47690300  0.57932300  0.87777700  1
  C  950  1  0.44430600  0.54832500  0.87613700  1
  C  951  1  0.47666700  0.51693800  0.87335300  1
  C  953  1  0.56330700  0.54739200  0.87556200  1
  C  957  1  0.47543800  0.64851000  0.90557500  1
  C  961  1  0.77787400  0.43868200  0.58892700  1
  C  962  1  0.76543000  0.47652200  0.59504200  1
  C  963  1  0.73346600  0.47625500  0.56466000  1
  C  965  1  0.73395000  0.40731900  0.52634000  1
  C  969  1  0.77962700  0.41072900  0.62949200  1
  C  973  1  0.77796100  0.15329000  0.56377500  1
  C  974  1  0.76547100  0.12158700  0.52593300  1
  C  975  1  0.73355400  0.09145100  0.52619500  1
  C  977  1  0.73402100  0.12206000  0.59512600  1
  C  981  1  0.77960100  0.22181100  0.59172500  1
  C  985  1  0.77786600  0.41350000  0.84911900  1
  C  986  1  0.76539500  0.40737300  0.88083100  1
  C  987  1  0.73345800  0.43776500  0.91095600  1
  C  989  1  0.73395000  0.47608800  0.88034400  1
  C  993  1  0.77960500  0.37292900  0.78060200  1
  C  997  1  0.77797200  0.56504100  0.41235700  1
  C  998  1  0.76548700  0.52719900  0.40621500  1
  C  999  1  0.73356700  0.52745700  0.43661200  1
  C  1001  1  0.73405500  0.59638700  0.47494600  1
  C  1005  1  0.77959700  0.59299700  0.37179300  1
  C  1009  1  0.77788600  0.85037100  0.43747300  1
  C  1010  1  0.76544100  0.88209600  0.47531100  1
  C  1011  1  0.73347900  0.91221200  0.47504100  1
  C  1013  1  0.73397500  0.88159600  0.40610600  1
  C  1017  1  0.77962900  0.78185400  0.40952400  1
  C  1021  1  0.77797500  0.59013500  0.15206900  1
  C  1022  1  0.76547900  0.59627200  0.12036600  1
  C  1023  1  0.73356600  0.56587100  0.09023000  1
  C  1025  1  0.73404200  0.52755000  0.12084100  1
  C  1029  1  0.77961300  0.63070600  0.22058900  1
  C  1033  1  0.22648600  0.56516500  0.41284700  1
  C  1034  1  0.23902000  0.52729100  0.40660600  1
  C  1035  1  0.27098700  0.52755800  0.43700100  1
  C  1037  1  0.27047300  0.59651000  0.47547300  1
  C  1041  1  0.22471200  0.59335200  0.37247900  1
  C  1045  1  0.22641000  0.85079800  0.43731000  1
  C  1046  1  0.23899200  0.88240900  0.47518800  1
  C  1047  1  0.27092000  0.91255600  0.47492600  1
  C  1049  1  0.27041800  0.88208100  0.40597800  1
  C  1053  1  0.22473400  0.78224100  0.40912600  1
  C  1057  1  0.22649600  0.58966000  0.15171900  1
  C  1058  1  0.23905600  0.59591300  0.12009700  1
  C  1059  1  0.27100000  0.56550800  0.08995900  1
  C  1061  1  0.27048200  0.52703500  0.12043900  1
  C  1065  1  0.22472400  0.63003200  0.22027200  1
  C  1069  1  0.22639600  0.43851100  0.58833900  1
  C  1070  1  0.23897300  0.47638900  0.59460700  1
  C  1071  1  0.27090000  0.47613100  0.56420100  1
  C  1073  1  0.27038000  0.40718300  0.52571200  1
  C  1077  1  0.22473900  0.41032200  0.62870700  1
  C  1081  1  0.22648200  0.15293400  0.56391000  1
  C  1082  1  0.23901600  0.12129700  0.52603500  1
  C  1083  1  0.27097800  0.09116900  0.52630500  1
  C  1085  1  0.27045600  0.12165400  0.59526000  1
  C  1089  1  0.22471200  0.22148800  0.59209400  1
  C  1093  1  0.22639600  0.41410200  0.84955200  1
  C  1094  1  0.23898200  0.40783600  0.88116400  1
  C  1095  1  0.27090700  0.43824700  0.91131000  1
  C  1097  1  0.27039800  0.47672000  0.88083300  1
  C  1101  1  0.22472200  0.37372600  0.78099800  1
  H  5  1  0.71848300  0.52094600  0.67008400  1
  H  6  1  0.77562700  0.49405800  0.67189800  1
  H  9  1  0.86853000  0.48846300  0.63143000  1
  H  10  1  0.86871200  0.51110300  0.60320300  1
  H  11  1  0.86978600  0.52863500  0.70568400  1
  H  12  1  0.87268500  0.57973500  0.72957700  1
  H  15  1  0.87621800  0.58521300  0.63727000  1
  H  16  1  0.87640000  0.61399900  0.68834700  1
  H  18  1  0.78465600  0.55031500  0.60243600  1
  H  19  1  0.72355700  0.55395200  0.62936200  1
  H  21  1  0.78780200  0.61979000  0.72811100  1
  H  22  1  0.72529800  0.59579600  0.70448600  1
  H  27  1  0.71851200  0.15220200  0.48151400  1
  H  28  1  0.77565500  0.18091000  0.50840000  1
  H  31  1  0.86856900  0.14604700  0.51398900  1
  H  32  1  0.86876200  0.09518000  0.49134900  1
  H  33  1  0.86980100  0.18013000  0.47381600  1
  H  34  1  0.87269400  0.15292100  0.42271600  1
  H  37  1  0.87626500  0.05514100  0.41723600  1
  H  38  1  0.87642800  0.07743000  0.38845100  1
  H  40  1  0.78471600  0.05519300  0.45214100  1
  H  41  1  0.72360600  0.07847700  0.44851100  1
  H  43  1  0.78781300  0.11139100  0.38266300  1
  H  44  1  0.72531600  0.11175100  0.40666000  1
  H  49  1  0.71848700  0.33232400  0.85021500  1
  H  50  1  0.77563800  0.33051700  0.82151900  1
  H  53  1  0.86852200  0.37100100  0.85639800  1
  H  54  1  0.86869000  0.39923300  0.90726500  1
  H  55  1  0.86980100  0.29674800  0.82233000  1
  H  56  1  0.87270300  0.27286500  0.84954500  1
  H  59  1  0.87620200  0.36518000  0.94732200  1
  H  60  1  0.87640400  0.31410400  0.92503800  1
  H  62  1  0.78463300  0.39999400  0.94723700  1
  H  63  1  0.72354300  0.37305600  0.92394600  1
  H  65  1  0.78781400  0.27431900  0.89105800  1
  H  66  1  0.72530300  0.29793700  0.89068200  1
  H  71  1  0.71852100  0.48278900  0.33117100  1
  H  72  1  0.77567300  0.50966900  0.32934900  1
  H  75  1  0.86857700  0.51525100  0.36980200  1
  H  76  1  0.86876300  0.49261100  0.39803000  1
  H  77  1  0.86981400  0.47507500  0.29554900  1
  H  78  1  0.87269900  0.42397700  0.27165900  1
  H  81  1  0.87625100  0.41849400  0.36396100  1
  H  82  1  0.87642000  0.38971000  0.31288500  1
  H  84  1  0.78470700  0.45340900  0.39880600  1
  H  85  1  0.72360100  0.44978100  0.37189000  1
  H  87  1  0.78780700  0.38392900  0.27313200  1
  H  88  1  0.72531200  0.40793300  0.29677000  1
  H  93  1  0.71849200  0.85148300  0.51974100  1
  H  94  1  0.77563700  0.82277900  0.49285300  1
  H  97  1  0.86853900  0.85765200  0.48725400  1
  H  98  1  0.86872000  0.90851800  0.50989200  1
  H  99  1  0.86979700  0.82357300  0.52743100  1
  H  100  1  0.87269700  0.85078500  0.57852900  1
  H  103  1  0.87623000  0.94856200  0.58400100  1
  H  104  1  0.87641200  0.92627600  0.61279000  1
  H  106  1  0.78466600  0.94849900  0.54910300  1
  H  107  1  0.72356700  0.92521200  0.55274200  1
  H  109  1  0.78781400  0.89230700  0.61858700  1
  H  110  1  0.72531000  0.89193700  0.59459200  1
  H  115  1  0.71852000  0.67130600  0.15098200  1
  H  116  1  0.77566700  0.67312800  0.17968700  1
  H  119  1  0.86858100  0.63267600  0.14482200  1
  H  120  1  0.86876700  0.60444700  0.09395600  1
  H  121  1  0.86981100  0.70693100  0.17889900  1
  H  122  1  0.87269900  0.73081900  0.15168900  1
  H  125  1  0.87626300  0.63851500  0.05391100  1
  H  126  1  0.87642400  0.68959100  0.07619800  1
  H  128  1  0.78471500  0.60366600  0.05397200  1
  H  129  1  0.72360600  0.63058200  0.07725600  1
  H  131  1  0.78781100  0.72934100  0.11016300  1
  H  132  1  0.72531600  0.70570600  0.11052800  1
  H  137  1  0.78534400  0.84904800  0.33276600  1
  H  138  1  0.72723100  0.82019400  0.33034100  1
  H  141  1  0.63692400  0.85118900  0.36681900  1
  H  142  1  0.63106300  0.90222900  0.39434700  1
  H  143  1  0.63926500  0.81691700  0.29198800  1
  H  144  1  0.63393100  0.84448700  0.26877700  1
  H  147  1  0.62669400  0.94198500  0.36056500  1
  H  148  1  0.62915600  0.91950500  0.30930200  1
  H  150  1  0.71556800  0.94542300  0.39845200  1
  H  151  1  0.77837500  0.92277100  0.37453900  1
  H  153  1  0.72072200  0.88963300  0.27321000  1
  H  154  1  0.78145900  0.88817300  0.29729000  1
  H  159  1  0.78540700  0.66972400  0.51574900  1
  H  160  1  0.72730200  0.67213700  0.48930400  1
  H  163  1  0.63700300  0.63565500  0.48380700  1
  H  164  1  0.63112800  0.60813000  0.50731900  1
  H  165  1  0.63932400  0.71048600  0.52435800  1
  H  166  1  0.63397300  0.73370200  0.57514000  1
  H  169  1  0.62672700  0.64191100  0.58084600  1
  H  170  1  0.62916900  0.69317400  0.60963700  1
  H  172  1  0.71561200  0.60403700  0.54643200  1
  H  173  1  0.77842100  0.62795400  0.54770900  1
  H  175  1  0.72073500  0.72928300  0.61587100  1
  H  176  1  0.78148500  0.70520500  0.59034900  1
  H  181  1  0.78540600  0.48675100  0.15341767  1
  H  182  1  0.72730100  0.51319300  0.18223600  1
  H  185  1  0.63699600  0.51869100  0.15126000  1
  H  186  1  0.63111400  0.49518000  0.10022100  1
  H  187  1  0.63933100  0.47813300  0.18553500  1
  H  188  1  0.63398100  0.42735000  0.15796500  1
  H  191  1  0.62671500  0.42164700  0.06046900  1
  H  192  1  0.62917100  0.39286000  0.08294500  1
  H  194  1  0.71559500  0.45607500  0.05701300  1
  H  195  1  0.77840900  0.45479700  0.07964800  1
  H  197  1  0.72074400  0.38662500  0.11280900  1
  H  198  1  0.78148900  0.41214900  0.11425200  1
  H  203  1  0.78538600  0.15459200  0.66846100  1
  H  204  1  0.72728100  0.18345100  0.67088500  1
  H  207  1  0.63697500  0.15247500  0.63440900  1
  H  208  1  0.63109800  0.10143600  0.60687300  1
  H  209  1  0.63931100  0.18673800  0.70923700  1
  H  210  1  0.63396400  0.15916400  0.73244400  1
  H  213  1  0.62671000  0.06167300  0.64064200  1
  H  214  1  0.62916200  0.08414200  0.69190600  1
  H  216  1  0.71558500  0.05822800  0.60276300  1
  H  217  1  0.77839600  0.08086500  0.62667800  1
  H  219  1  0.72072900  0.11400700  0.72800900  1
  H  220  1  0.78147500  0.11545800  0.70393100  1
  H  225  1  0.78531700  0.33398100  0.48555300  1
  H  226  1  0.72720100  0.33156000  0.51198400  1
  H  229  1  0.63689600  0.36803900  0.51746300  1
  H  230  1  0.63103800  0.39556200  0.49394600  1
  H  231  1  0.63923600  0.29320800  0.47691100  1
  H  232  1  0.63390200  0.26999200  0.42612800  1
  H  235  1  0.62667200  0.36177400  0.42040800  1
  H  236  1  0.62913200  0.31051000  0.39162800  1
  H  238  1  0.71554400  0.39966200  0.45485900  1
  H  239  1  0.77835000  0.37574900  0.45360000  1
  H  241  1  0.72070100  0.27442000  0.38541500  1
  H  242  1  0.78143500  0.29850200  0.41095400  1
  H  247  1  0.78533000  0.51688700  0.84780800  1
  H  248  1  0.72721400  0.49046200  0.81895400  1
  H  251  1  0.63690700  0.48498000  0.84994600  1
  H  252  1  0.63104300  0.50848500  0.90098500  1
  H  253  1  0.63925600  0.52554400  0.81568000  1
  H  254  1  0.63392600  0.57632600  0.84325500  1
  H  257  1  0.62668100  0.58202200  0.94074700  1
  H  258  1  0.62914700  0.61081100  0.91827300  1
  H  260  1  0.71554900  0.54756800  0.94418200  1
  H  261  1  0.77835800  0.54883000  0.92153100  1
  H  263  1  0.72071700  0.61703100  0.88840200  1
  H  264  1  0.78144900  0.59149000  0.88694300  1
  H  269  1  0.28643800  0.48294800  0.33158000  1
  H  270  1  0.22949000  0.51002600  0.32983400  1
  H  273  1  0.13673500  0.51502900  0.36964300  1
  H  274  1  0.13649500  0.49233500  0.39793400  1
  H  275  1  0.13531200  0.47607400  0.29646300  1
  H  276  1  0.13314800  0.42521300  0.27132300  1
  H  279  1  0.12862200  0.41900500  0.36454400  1
  H  280  1  0.12935900  0.38953700  0.31378700  1
  H  282  1  0.22015400  0.45353200  0.39906800  1
  H  283  1  0.28121300  0.44990000  0.37209900  1
  H  285  1  0.21642800  0.38434600  0.27341500  1
  H  286  1  0.27915600  0.40804800  0.29689900  1
  H  291  1  0.28641200  0.85173000  0.51952600  1
  H  292  1  0.22946200  0.82290400  0.49245200  1
  H  295  1  0.13670200  0.85770000  0.48745000  1
  H  296  1  0.13645500  0.90868300  0.51014200  1
  H  297  1  0.13529500  0.82348000  0.52641100  1
  H  298  1  0.13313600  0.84920300  0.57727300  1
  H  301  1  0.12858400  0.94862600  0.58347600  1
  H  302  1  0.12933600  0.92734000  0.61294500  1
  H  304  1  0.22011000  0.94862700  0.54894100  1
  H  305  1  0.28117600  0.92529200  0.55257000  1
  H  307  1  0.21641600  0.89216900  0.61813500  1
  H  308  1  0.27913800  0.89195500  0.59442900  1
  H  313  1  0.28643400  0.67094500  0.15077500  1
  H  314  1  0.22948000  0.67268500  0.17959200  1
  H  317  1  0.13674200  0.63285900  0.14478200  1
  H  318  1  0.13651600  0.60456000  0.09379900  1
  H  319  1  0.13530000  0.70603800  0.17899400  1
  H  320  1  0.13312900  0.73117100  0.15326700  1
  H  323  1  0.12863700  0.63794100  0.05384500  1
  H  324  1  0.12935400  0.68869800  0.07512800  1
  H  326  1  0.22018000  0.60343600  0.05386700  1
  H  327  1  0.28123000  0.63041700  0.07720800  1
  H  329  1  0.21641600  0.72908700  0.11031300  1
  H  330  1  0.27915000  0.70561100  0.11053800  1
  H  335  1  0.28639800  0.52072100  0.66963800  1
  H  336  1  0.22944200  0.49365100  0.67138800  1
  H  339  1  0.13668800  0.48865600  0.63159000  1
  H  340  1  0.13644800  0.51134500  0.60329400  1
  H  341  1  0.13527800  0.52761500  0.70476700  1
  H  342  1  0.13312200  0.57847600  0.72990400  1
  H  345  1  0.12858800  0.58468100  0.63668400  1
  H  346  1  0.12933600  0.61414900  0.68744200  1
  H  348  1  0.22011200  0.55014200  0.60215500  1
  H  349  1  0.28117600  0.55377000  0.62912200  1
  H  351  1  0.21641600  0.61933600  0.72780600  1
  H  352  1  0.27913600  0.59562600  0.70431300  1
  H  357  1  0.28643400  0.15197700  0.48168700  1
  H  358  1  0.22948800  0.18079900  0.50876200  1
  H  361  1  0.13673100  0.14599600  0.51377200  1
  H  362  1  0.13649100  0.09501400  0.49108200  1
  H  363  1  0.13530800  0.18021900  0.47481500  1
  H  364  1  0.13314000  0.15449700  0.42395500  1
  H  367  1  0.12861200  0.05506900  0.41775100  1
  H  368  1  0.12935000  0.07635700  0.38828200  1
  H  370  1  0.22015000  0.05507300  0.45227700  1
  H  371  1  0.28120900  0.07840900  0.44864300  1
  H  373  1  0.21642000  0.11153300  0.38308400  1
  H  374  1  0.27914800  0.11175200  0.40678600  1
  H  379  1  0.28640000  0.33281800  0.85048500  1
  H  380  1  0.22944600  0.33106500  0.82166000  1
  H  383  1  0.13668800  0.37086500  0.85646000  1
  H  384  1  0.13644800  0.39916100  0.90744300  1
  H  385  1  0.13527800  0.29768400  0.82224300  1
  H  386  1  0.13312200  0.27255000  0.84797100  1
  H  389  1  0.12858200  0.36577500  0.94739100  1
  H  390  1  0.12933400  0.31501800  0.92610600  1
  H  392  1  0.22010800  0.40030600  0.94738300  1
  H  393  1  0.28117100  0.37334100  0.92404700  1
  H  395  1  0.21641400  0.27465400  0.89093400  1
  H  396  1  0.27913400  0.29814200  0.89071200  1
  H  401  1  0.21945500  0.15443800  0.66877500  1
  H  402  1  0.27747400  0.18313900  0.67068400  1
  H  405  1  0.36709100  0.15168400  0.63423700  1
  H  406  1  0.37261800  0.10047100  0.60695100  1
  H  407  1  0.36576900  0.18650000  0.70806600  1
  H  408  1  0.37075400  0.16064100  0.73273300  1
  H  411  1  0.37791900  0.06119800  0.64052200  1
  H  412  1  0.37495600  0.08303400  0.69148900  1
  H  414  1  0.28851000  0.05791100  0.60305600  1
  H  415  1  0.22602300  0.08085700  0.62730100  1
  H  417  1  0.28525900  0.11432200  0.72838200  1
  H  418  1  0.22404600  0.11569000  0.70468100  1
  H  423  1  0.21938400  0.33367200  0.48496800  1
  H  424  1  0.27739400  0.33177200  0.51177300  1
  H  427  1  0.36700800  0.36821700  0.51678200  1
  H  428  1  0.37255600  0.39550100  0.49285600  1
  H  429  1  0.36569100  0.29438600  0.47777200  1
  H  430  1  0.37069400  0.26971800  0.42724700  1
  H  433  1  0.37789000  0.36193500  0.42002500  1
  H  434  1  0.37494000  0.31097000  0.39088200  1
  H  436  1  0.28847200  0.39939300  0.45416800  1
  H  437  1  0.22597600  0.37514900  0.45285500  1
  H  439  1  0.28523800  0.27406400  0.38526100  1
  H  440  1  0.22401200  0.29776700  0.41031400  1
  H  445  1  0.21939200  0.51746300  0.84806800  1
  H  446  1  0.27740500  0.49066100  0.81936000  1
  H  449  1  0.36702400  0.48565200  0.85079000  1
  H  450  1  0.37257400  0.50957400  0.90200100  1
  H  451  1  0.36569800  0.52467100  0.81597700  1
  H  452  1  0.37069400  0.57519600  0.84183900  1
  H  455  1  0.37789800  0.58241000  0.94127400  1
  H  456  1  0.37494200  0.61155200  0.91944900  1
  H  458  1  0.28848800  0.54825500  0.94458100  1
  H  459  1  0.22599400  0.54956800  0.92165300  1
  H  461  1  0.28523400  0.61717500  0.88817400  1
  H  462  1  0.22401400  0.59211600  0.88681900  1
  H  467  1  0.21941300  0.84931800  0.33246600  1
  H  468  1  0.27742800  0.82060900  0.33055600  1
  H  471  1  0.36704400  0.85204400  0.36700000  1
  H  472  1  0.37259200  0.90325500  0.39429500  1
  H  473  1  0.36572200  0.81723900  0.29317000  1
  H  474  1  0.37071800  0.84310400  0.26851200  1
  H  477  1  0.37790600  0.94253600  0.36074100  1
  H  478  1  0.37495400  0.92071700  0.30977600  1
  H  480  1  0.28850100  0.94583100  0.39819800  1
  H  481  1  0.22600600  0.92290100  0.37395400  1
  H  483  1  0.28525200  0.88943900  0.27287000  1
  H  484  1  0.22403200  0.88807600  0.29657100  1
  H  489  1  0.21947600  0.67002500  0.51619900  1
  H  490  1  0.27750000  0.67192900  0.48940700  1
  H  493  1  0.36711400  0.63548200  0.48441900  1
  H  494  1  0.37263600  0.60819700  0.50834800  1
  H  495  1  0.36579000  0.70931300  0.52342900  1
  H  496  1  0.37077400  0.73398100  0.57395400  1
  H  499  1  0.37793000  0.64177400  0.58119400  1
  H  500  1  0.37496800  0.69274200  0.61032100  1
  H  502  1  0.28852200  0.60431000  0.54701300  1
  H  503  1  0.22603600  0.62855400  0.54830900  1
  H  505  1  0.28527200  0.72963500  0.61592300  1
  H  506  1  0.22406100  0.70593300  0.59085000  1
  H  511  1  0.21946800  0.48629900  0.15321200  1
  H  512  1  0.27749600  0.51308500  0.18191300  1
  H  515  1  0.36711200  0.51807600  0.15046200  1
  H  516  1  0.37264000  0.49415600  0.09924900  1
  H  517  1  0.36577800  0.47905500  0.18527200  1
  H  518  1  0.37075600  0.42853000  0.15940700  1
  H  521  1  0.37793200  0.42131100  0.05997000  1
  H  522  1  0.37496400  0.39217600  0.08180200  1
  H  524  1  0.28852800  0.45549600  0.05668700  1
  H  525  1  0.22604000  0.45419800  0.07963100  1
  H  527  1  0.28526400  0.38657000  0.11308500  1
  H  528  1  0.22405200  0.41164400  0.11445600  1
  H  536  1  0.78665300  0.50407400  0.78225800  1
  H  538  1  0.75853300  0.65839800  0.85921900  1
  H  539  1  0.69019100  0.67851000  0.86621600  1
  H  540  1  0.72564900  0.66401400  0.82195800  1
  H  548  1  0.78666000  0.28125300  0.49836800  1
  H  550  1  0.75856600  0.20386200  0.34408600  1
  H  551  1  0.69023800  0.19077000  0.32394300  1
  H  552  1  0.72562300  0.16099700  0.33845700  1
  H  560  1  0.78670400  0.22014600  0.72119300  1
  H  562  1  0.75855100  0.14319700  0.79856000  1
  H  563  1  0.69021100  0.13620900  0.81167900  1
  H  564  1  0.72567400  0.18046200  0.84143600  1
  H  572  1  0.78671600  0.49959300  0.21894000  1
  H  574  1  0.75867900  0.34532500  0.14206000  1
  H  575  1  0.69036800  0.32516200  0.13500700  1
  H  576  1  0.72575400  0.33969000  0.17929700  1
  H  584  1  0.78670400  0.72244700  0.50290500  1
  H  586  1  0.75855700  0.79983800  0.65722400  1
  H  587  1  0.69021500  0.81295400  0.67733100  1
  H  588  1  0.72567200  0.84270900  0.66282500  1
  H  596  1  0.78668500  0.78350400  0.28003000  1
  H  598  1  0.75860100  0.86040500  0.20265500  1
  H  599  1  0.69027900  0.86745900  0.18956200  1
  H  600  1  0.72566100  0.82317300  0.15978600  1
  H  608  1  0.21871400  0.49983000  0.21907300  1
  H  610  1  0.24735200  0.34542100  0.14257400  1
  H  611  1  0.31582800  0.32554500  0.13579700  1
  H  612  1  0.28022000  0.34010300  0.18002100  1
  H  620  1  0.21869800  0.72234200  0.50266600  1
  H  622  1  0.24731600  0.80028100  0.65703400  1
  H  623  1  0.31578000  0.81335300  0.67693700  1
  H  624  1  0.28024500  0.84303000  0.66236200  1
  H  632  1  0.21866000  0.78345500  0.28014400  1
  H  634  1  0.24732600  0.85994700  0.20223500  1
  H  635  1  0.31580400  0.86671800  0.18913200  1
  H  636  1  0.28018600  0.82249700  0.15947100  1
  H  644  1  0.21864200  0.50390400  0.78219700  1
  H  646  1  0.24719600  0.65825600  0.85861900  1
  H  647  1  0.31564200  0.67818700  0.86545200  1
  H  648  1  0.28010000  0.66359900  0.82120000  1
  H  656  1  0.21866400  0.28135700  0.49853500  1
  H  658  1  0.24729200  0.20342900  0.34413300  1
  H  659  1  0.31576600  0.19032200  0.32424900  1
  H  660  1  0.28016000  0.16066500  0.33881800  1
  H  668  1  0.21867600  0.22029100  0.72110000  1
  H  670  1  0.24729200  0.14385300  0.79902700  1
  H  671  1  0.31575500  0.13702400  0.81210200  1
  H  672  1  0.28021600  0.18127000  0.84177900  1
  H  680  1  0.81918700  0.66362700  0.60962200  1
  H  682  1  0.63685300  0.69031800  0.70911300  1
  H  683  1  0.57788800  0.69371500  0.68384100  1
  H  684  1  0.64090200  0.71790900  0.68494100  1
  H  692  1  0.81911300  0.94898300  0.33876600  1
  H  694  1  0.63721300  0.02175900  0.31201500  1
  H  695  1  0.57821900  0.99303800  0.30843500  1
  H  696  1  0.64138200  0.97000000  0.28447000  1
  H  704  1  0.81919300  0.39288800  0.05340600  1
  H  706  1  0.63685700  0.29334900  0.98064800  1
  H  707  1  0.57789000  0.31862600  0.00931500  1
  H  708  1  0.64090300  0.31753700  0.03241300  1
  H  716  1  0.81909500  0.33997200  0.39160800  1
  H  718  1  0.63724400  0.31321800  0.29207900  1
  H  719  1  0.57822800  0.30963200  0.31719900  1
  H  720  1  0.64139100  0.28567200  0.31629100  1
  H  728  1  0.81919100  0.05463300  0.66234100  1
  H  730  1  0.63683900  0.98184200  0.68909900  1
  H  731  1  0.57787800  0.01051600  0.69248900  1
  H  732  1  0.64089100  0.03360600  0.71668000  1
  H  740  1  0.81910300  0.61081600  0.94775200  1
  H  742  1  0.63719900  0.71034400  0.02053400  1
  H  743  1  0.57820600  0.68520300  0.99181000  1
  H  744  1  0.64137100  0.68613400  0.96877400  1
  H  752  1  0.18558900  0.33930000  0.39096100  1
  H  754  1  0.36411400  0.31578600  0.29088700  1
  H  755  1  0.42559400  0.31163400  0.31340300  1
  H  756  1  0.36438000  0.28593300  0.31270300  1
  H  764  1  0.18566900  0.05484100  0.66325600  1
  H  766  1  0.36370600  0.97834200  0.68687200  1
  H  767  1  0.42523400  0.00503000  0.69119500  1
  H  768  1  0.36387000  0.03001900  0.71665800  1
  H  776  1  0.18558500  0.61145600  0.94770000  1
  H  778  1  0.36412700  0.71158100  0.02424100  1
  H  779  1  0.42560700  0.68905800  0.99757100  1
  H  780  1  0.36439600  0.68976200  0.97257000  1
  H  788  1  0.18567800  0.66450600  0.61028100  1
  H  790  1  0.36366000  0.68812700  0.71040700  1
  H  791  1  0.42520300  0.69246600  0.68806600  1
  H  792  1  0.36384000  0.71792000  0.68852300  1
  H  800  1  0.18558900  0.94893900  0.33811800  1
  H  802  1  0.36413600  0.02550100  0.31454400  1
  H  803  1  0.42561400  0.99883400  0.31040400  1
  H  804  1  0.36440400  0.97383000  0.28469700  1
  H  812  1  0.18567800  0.39223100  0.05360600  1
  H  814  1  0.36371400  0.29210900  0.97710600  1
  H  815  1  0.42524000  0.31447400  0.00379500  1
  H  816  1  0.36388000  0.31399900  0.02878400  1
  H  824  1  0.04611000  0.49662300  0.61427200  1
  H  826  1  0.03791600  0.65420900  0.71024900  1
  H  827  1  0.05764800  0.67273400  0.75933800  1
  H  828  1  0.98827300  0.65562400  0.74461700  1
  H  836  1  0.04615000  0.12071600  0.50581200  1
  H  838  1  0.03788800  0.05909900  0.34824300  1
  H  839  1  0.05765200  0.08963600  0.32969300  1
  H  840  1  0.98827800  0.09206600  0.34682100  1
  H  848  1  0.04610800  0.38818000  0.88173600  1
  H  850  1  0.03791000  0.29221800  0.94336500  1
  H  851  1  0.05764400  0.24313000  0.91280600  1
  H  852  1  0.98827000  0.25784600  0.91041100  1
  H  860  1  0.04615400  0.50706600  0.38696200  1
  H  862  1  0.03789600  0.34950200  0.29101100  1
  H  863  1  0.05765600  0.33095200  0.24192300  1
  H  864  1  0.98828300  0.34807600  0.25662100  1
  H  872  1  0.04611900  0.88297300  0.49541200  1
  H  874  1  0.03791200  0.94458700  0.65300300  1
  H  875  1  0.05765000  0.91402400  0.67152800  1
  H  876  1  0.98827700  0.91163000  0.65441700  1
  H  884  1  0.04616300  0.61552700  0.11949100  1
  H  886  1  0.03789400  0.71145800  0.05785500  1
  H  887  1  0.05764400  0.76054700  0.08838500  1
  H  888  1  0.98827400  0.74584600  0.09081000  1
  H  896  1  0.45924200  0.87299500  0.38078000  1
  H  898  1  0.47745600  0.93612200  0.28407300  1
  H  899  1  0.44795800  0.90734400  0.23723100  1
  H  900  1  0.51742100  0.89796600  0.24633000  1
  H  908  1  0.45930000  0.62170200  0.49161100  1
  H  910  1  0.47735200  0.71834300  0.65140900  1
  H  911  1  0.44793300  0.76521300  0.66950200  1
  H  912  1  0.51741600  0.75608400  0.65106300  1
  H  920  1  0.45930200  0.51088300  0.12949000  1
  H  922  1  0.47737200  0.35107500  0.06633700  1
  H  923  1  0.44792900  0.33298900  0.09511200  1
  H  924  1  0.51741000  0.35143300  0.10443900  1
  H  932  1  0.45928000  0.13072000  0.62046100  1
  H  934  1  0.47737800  0.06756400  0.71711900  1
  H  935  1  0.44792900  0.09634100  0.76397700  1
  H  936  1  0.51740800  0.10567300  0.75486200  1
  H  944  1  0.45920800  0.38199800  0.50960900  1
  H  946  1  0.47739600  0.28527900  0.34978500  1
  H  947  1  0.44793300  0.23842800  0.33172400  1
  H  948  1  0.51739800  0.24754900  0.35019700  1
  H  956  1  0.45922000  0.49282300  0.87173600  1
  H  958  1  0.47744200  0.65265500  0.93485500  1
  H  959  1  0.44794600  0.67071600  0.90607400  1
  H  960  1  0.51740600  0.65223900  0.89669800  1
  H  968  1  0.72064500  0.50107200  0.56547900  1
  H  970  1  0.73928400  0.42391800  0.64277000  1
  H  971  1  0.80616100  0.41040000  0.65170300  1
  H  972  1  0.77279800  0.38070100  0.60656600  1
  H  980  1  0.72070200  0.06746800  0.50137500  1
  H  982  1  0.73924200  0.22187000  0.57854100  1
  H  983  1  0.80608700  0.24436900  0.59205000  1
  H  984  1  0.77279700  0.22890800  0.62175300  1
  H  992  1  0.72063700  0.43694700  0.93495500  1
  H  994  1  0.73926800  0.35965100  0.78051800  1
  H  995  1  0.80613700  0.35071800  0.75805700  1
  H  996  1  0.77276700  0.39585500  0.77349800  1
  H  1004  1  0.72070900  0.50263700  0.43577200  1
  H  1006  1  0.73923800  0.57981200  0.35855000  1
  H  1007  1  0.80607800  0.59332800  0.34955900  1
  H  1008  1  0.77279100  0.62302500  0.39472500  1
  H  1016  1  0.72065900  0.93621000  0.49985800  1
  H  1018  1  0.73928500  0.78176800  0.42271400  1
  H  1019  1  0.80615900  0.75931200  0.40919500  1
  H  1020  1  0.77280100  0.77475100  0.37949600  1
  H  1028  1  0.72071000  0.56670400  0.06624600  1
  H  1030  1  0.73925200  0.64394700  0.22064700  1
  H  1031  1  0.80609500  0.65294000  0.24314800  1
  H  1032  1  0.77280700  0.60777700  0.22768900  1
  H  1040  1  0.28393700  0.50273300  0.43611200  1
  H  1042  1  0.26515200  0.58030500  0.35927500  1
  H  1043  1  0.19823600  0.59368900  0.35024800  1
  H  1044  1  0.23134000  0.62337000  0.39548900  1
  H  1052  1  0.28389700  0.93647900  0.49975200  1
  H  1054  1  0.26519000  0.78211100  0.42217300  1
  H  1055  1  0.19830000  0.75965700  0.40879300  1
  H  1056  1  0.23134400  0.77523500  0.37910800  1
  H  1064  1  0.28395000  0.56639700  0.06602300  1
  H  1066  1  0.26516000  0.64324000  0.22042500  1
  H  1067  1  0.19824600  0.65226300  0.24284000  1
  H  1068  1  0.23136200  0.60702400  0.22728200  1
  H  1076  1  0.28388400  0.50095700  0.56510700  1
  H  1078  1  0.26519400  0.42336900  0.64187900  1
  H  1079  1  0.19831200  0.40998400  0.65095700  1
  H  1080  1  0.23134800  0.38030400  0.60569000  1
  H  1088  1  0.28392800  0.06723300  0.50148000  1
  H  1090  1  0.26515200  0.22164000  0.57904300  1
  H  1091  1  0.19823600  0.24405400  0.59242600  1
  H  1092  1  0.23134000  0.22849500  0.62211000  1
  H  1100  1  0.28388600  0.43734800  0.93523400  1
  H  1102  1  0.26517700  0.36055200  0.78087000  1
  H  1103  1  0.19828800  0.35147400  0.75841400  1
  H  1104  1  0.23133000  0.39673800  0.77398900  1
  N  532  1  0.78646800  0.52871100  0.74881500  1
  N  534  1  0.74045100  0.58724400  0.77081800  1
  N  544  1  0.78645800  0.22317100  0.47374800  1
  N  546  1  0.74042500  0.18663600  0.41522300  1
  N  556  1  0.78650400  0.25359800  0.77927000  1
  N  558  1  0.74047500  0.23160300  0.81580500  1
  N  568  1  0.78648000  0.47499800  0.25241900  1
  N  570  1  0.74046300  0.41646900  0.23043400  1
  N  580  1  0.78649300  0.78052500  0.52752200  1
  N  582  1  0.74047100  0.81706200  0.58605100  1
  N  592  1  0.78647500  0.75004200  0.22194900  1
  N  594  1  0.74044200  0.77203700  0.18541600  1
  N  604  1  0.21876900  0.47535800  0.25266600  1
  N  606  1  0.26481900  0.41690100  0.23088400  1
  N  616  1  0.21876900  0.78040700  0.52712200  1
  N  618  1  0.26484000  0.81708800  0.58556900  1
  N  628  1  0.21873100  0.74985400  0.22208000  1
  N  630  1  0.26479400  0.77163100  0.18540200  1
  N  640  1  0.21874400  0.52833700  0.74856800  1
  N  642  1  0.26479800  0.58679100  0.77033400  1
  N  652  1  0.21875000  0.22329500  0.47408300  1
  N  654  1  0.26479800  0.18661100  0.41562400  1
  N  664  1  0.21875200  0.25390000  0.77916500  1
  N  666  1  0.26482300  0.23212900  0.81584300  1
  N  676  1  0.80881800  0.63742000  0.64153000  1
  N  678  1  0.71894200  0.63225700  0.66057200  1
  N  688  1  0.80885700  0.00718300  0.36507700  1
  N  690  1  0.71896100  0.03137800  0.37024600  1
  N  700  1  0.80877500  0.36094000  0.99529000  1
  N  702  1  0.71896100  0.34188100  0.97111400  1
  N  712  1  0.80879700  0.36631300  0.35975100  1
  N  714  1  0.71896600  0.37147800  0.34073900  1
  N  724  1  0.80883100  0.99651500  0.63618800  1
  N  726  1  0.71895400  0.97230700  0.63105500  1
  N  736  1  0.80884800  0.64270800  0.00595100  1
  N  738  1  0.71895400  0.66173600  0.03014800  1
  N  748  1  0.19579200  0.36613000  0.35960600  1
  N  750  1  0.28557700  0.37161800  0.34071300  1
  N  760  1  0.19575600  0.99657000  0.63631000  1
  N  762  1  0.28556200  0.97220100  0.63081600  1
  N  772  1  0.19583200  0.64285700  0.00588800  1
  N  774  1  0.28555800  0.66176900  0.03024200  1
  N  784  1  0.19580400  0.63753400  0.64158200  1
  N  786  1  0.28554800  0.63204900  0.66044800  1
  N  796  1  0.19578400  0.00712900  0.36489800  1
  N  798  1  0.28556600  0.03151500  0.37035100  1
  N  808  1  0.19576200  0.36089500  0.99533500  1
  N  810  1  0.28556600  0.34201600  0.97096400  1
  N  820  1  0.97145800  0.52061800  0.63762400  1
  N  822  1  0.97072200  0.57958900  0.69505200  1
  N  832  1  0.97149200  0.12008000  0.48182400  1
  N  834  1  0.97074700  0.11854900  0.42285800  1
  N  844  1  0.97145500  0.36482400  0.88237500  1
  N  846  1  0.97072200  0.30739900  0.88392700  1
  N  856  1  0.97149700  0.48308000  0.36360900  1
  N  858  1  0.97075100  0.42411400  0.30617500  1
  N  868  1  0.97146700  0.88361400  0.51940800  1
  N  870  1  0.97073000  0.88516000  0.57838000  1
  N  880  1  0.97150200  0.63887300  0.11885100  1
  N  882  1  0.97074800  0.69630400  0.11731000  1
  N  892  1  0.53331400  0.87475300  0.35783200  1
  N  894  1  0.53410600  0.87838200  0.30158200  1
  N  904  1  0.53336900  0.64463900  0.51633800  1
  N  906  1  0.53414800  0.70089900  0.57620700  1
  N  916  1  0.53336600  0.48616100  0.12771700  1
  N  918  1  0.53414000  0.42628600  0.12409400  1
  N  928  1  0.53335200  0.12891900  0.64339000  1
  N  930  1  0.53413300  0.12530300  0.69964600  1
  N  940  1  0.53328400  0.35905100  0.48490800  1
  N  942  1  0.53408200  0.30279100  0.42503400  1
  N  952  1  0.53329800  0.51753700  0.87351900  1
  N  954  1  0.53409500  0.57740900  0.87713300  1
  N  964  1  0.71904600  0.44281400  0.53232400  1
  N  966  1  0.76293700  0.40631400  0.55519100  1
  N  976  1  0.71912600  0.09255100  0.55962900  1
  N  978  1  0.76301100  0.15191700  0.59613900  1
  N  988  1  0.71904600  0.47010500  0.90985800  1
  N  990  1  0.76293800  0.44723900  0.85048600  1
  N  1000  1  0.71915100  0.56088900  0.46895500  1
  N  1002  1  0.76303300  0.59740400  0.44610000  1
  N  1012  1  0.71906700  0.91110800  0.44160000  1
  N  1014  1  0.76295400  0.85173900  0.40510100  1
  N  1024  1  0.71914000  0.53353500  0.09132800  1
  N  1026  1  0.76302900  0.55639700  0.15069900  1
  N  1036  1  0.28539400  0.56097900  0.46939100  1
  N  1038  1  0.24143200  0.59750600  0.44662600  1
  N  1048  1  0.28533000  0.91152900  0.44151000  1
  N  1050  1  0.24136800  0.85223900  0.40497400  1
  N  1060  1  0.28540000  0.53311600  0.09098800  1
  N  1062  1  0.24143600  0.55587900  0.15028000  1
  N  1072  1  0.28530100  0.44271700  0.53180300  1
  N  1074  1  0.24134400  0.40617600  0.55455500  1
  N  1084  1  0.28537900  0.09220400  0.55972900  1
  N  1086  1  0.24142000  0.15149600  0.59625300  1
  N  1096  1  0.28531600  0.47063900  0.91028200  1
  N  1098  1  0.24134800  0.44787900  0.85099000  1
  O  535  1  0.69264600  0.61927700  0.82959300  1
  O  547  1  0.69262800  0.21338100  0.38317900  1
  O  559  1  0.69267000  0.17282800  0.78906400  1
  O  571  1  0.69271300  0.38439600  0.17162700  1
  O  583  1  0.69267400  0.79032800  0.61809800  1
  O  595  1  0.69265800  0.83083100  0.21216700  1
  O  607  1  0.31295300  0.38479500  0.17221500  1
  O  619  1  0.31296600  0.79052200  0.61768700  1
  O  631  1  0.31292400  0.83030000  0.21196500  1
  O  643  1  0.31287300  0.61893600  0.82903500  1
  O  655  1  0.31290200  0.21316400  0.38349900  1
  O  667  1  0.31294200  0.17344400  0.78927400  1
  O  679  1  0.64001800  0.65726500  0.64819800  1
  O  691  1  0.64004700  0.99393600  0.34511200  1
  O  703  1  0.64001400  0.35426400  0.00849400  1
  O  715  1  0.64003600  0.34631600  0.35299900  1
  O  727  1  0.64001400  0.00969300  0.65603400  1
  O  739  1  0.64003700  0.64942400  0.99270600  1
  O  751  1  0.36449300  0.34594700  0.35209400  1
  O  763  1  0.36446000  0.00930700  0.65662700  1
  O  775  1  0.36450200  0.65037200  0.99319500  1
  O  787  1  0.36445600  0.65789200  0.64920000  1
  O  799  1  0.36450200  0.99446000  0.34471200  1
  O  811  1  0.36446400  0.35331600  0.00807200  1
  O  823  1  0.05106400  0.61310300  0.72803000  1
  O  835  1  0.05108900  0.11798800  0.38932700  1
  O  847  1  0.05106600  0.27442700  0.88447400  1
  O  859  1  0.05109600  0.39058400  0.27320500  1
  O  871  1  0.05107200  0.88570000  0.61189600  1
  O  883  1  0.05108600  0.72927500  0.11674500  1
  O  895  1  0.45273200  0.87964600  0.26924900  1
  O  907  1  0.45277200  0.73324300  0.60978300  1
  O  919  1  0.45276200  0.39270800  0.12285000  1
  O  931  1  0.45275400  0.12407400  0.73199200  1
  O  943  1  0.45271600  0.27045000  0.39144300  1
  O  955  1  0.45272000  0.61099900  0.87838000  1
  O  967  1  0.80820500  0.43268000  0.61478200  1
  O  979  1  0.80823000  0.18517000  0.56977500  1
  O  991  1  0.80819500  0.38764400  0.81726000  1
  O  1003  1  0.80823400  0.57104500  0.38647700  1
  O  1015  1  0.80821200  0.81851200  0.43147100  1
  O  1027  1  0.80824200  0.61601500  0.18394900  1
  O  1039  1  0.19619400  0.57123000  0.38701700  1
  O  1051  1  0.19617400  0.81888400  0.43125000  1
  O  1063  1  0.19620400  0.61549000  0.18361300  1
  O  1075  1  0.19616900  0.43244600  0.61419200  1
  O  1087  1  0.19619400  0.18482700  0.56997300  1
  O  1099  1  0.19616000  0.38824700  0.81763900  1
