# generated using pymatgen
data_H8C9N2
_symmetry_space_group_name_H-M   'P 1'
_cell_length_a   14.16680000
_cell_length_b   46.06890000
_cell_length_c   55.86990000
_cell_angle_alpha   90.00000000
_cell_angle_beta   90.00000000
_cell_angle_gamma   90.00000000
_symmetry_Int_Tables_number   1
_chemical_formula_structural   H8C9N2
_chemical_formula_sum   'H512 C576 N128'
_cell_volume   36463.42836020
_cell_formula_units_Z   64
loop_
 _symmetry_equiv_pos_site_id
 _symmetry_equiv_pos_as_xyz
  1  'x, y, z'
loop_
 _atom_site_type_symbol
 _atom_site_label
 _atom_site_symmetry_multiplicity
 _atom_site_fract_x
 _atom_site_fract_y
 _atom_site_fract_z
 _atom_site_occupancy
  C  1  1  0.14411100  0.29176500  0.02761400  1
  C  2  1  0.22530900  0.31443100  0.03141600  1
  C  3  1  0.05599800  0.30849200  0.01632200  1
  C  4  1  0.02080100  0.33457300  0.03241900  1
  C  7  1  0.10830300  0.35479700  0.03613300  1
  C  8  1  0.19569500  0.34010100  0.04798300  1
  C  13  1  0.16391700  0.32806100  0.07270700  1
  C  14  1  0.08066100  0.30571600  0.07049400  1
  C  17  1  0.99626600  0.32216100  0.05801800  1
  C  20  1  0.10975800  0.28051200  0.05293600  1
  C  23  1  0.58189600  0.29368000  0.71957200  1
  C  24  1  0.50830700  0.31737900  0.71234800  1
  C  25  1  0.67259500  0.31041500  0.72971500  1
  C  26  1  0.71717000  0.33267100  0.71118400  1
  C  29  1  0.63521700  0.35385700  0.70394200  1
  C  30  1  0.54605900  0.33895700  0.69299900  1
  C  35  1  0.57788700  0.32207200  0.67045600  1
  C  36  1  0.65371900  0.29821400  0.67629200  1
  C  39  1  0.74081600  0.31481300  0.68770500  1
  C  42  1  0.61544400  0.27720400  0.69623500  1
  C  45  1  0.16051700  0.45376400  0.72126300  1
  C  46  1  0.24455600  0.43326600  0.71510800  1
  C  47  1  0.07833800  0.43334400  0.73138700  1
  C  48  1  0.04764600  0.40862000  0.71310800  1
  C  51  1  0.13836800  0.39019600  0.70739300  1
  C  52  1  0.21899200  0.40923200  0.69660000  1
  C  57  1  0.18391500  0.42378900  0.67326400  1
  C  58  1  0.09622500  0.44398500  0.67774900  1
  C  61  1  0.01713200  0.42404500  0.68914400  1
  C  64  1  0.12155300  0.46748200  0.69720000  1
  C  67  1  0.60004500  0.45793300  0.02862900  1
  C  68  1  0.51021500  0.43884200  0.03225200  1
  C  69  1  0.67987800  0.43790700  0.01723800  1
  C  70  1  0.70107700  0.41007900  0.03290300  1
  C  73  1  0.60627000  0.39278800  0.03560900  1
  C  74  1  0.52836100  0.41142300  0.04793400  1
  C  79  1  0.56298400  0.42124700  0.07304000  1
  C  80  1  0.65543600  0.44002800  0.07139300  1
  C  83  1  0.73189400  0.42056500  0.05855400  1
  C  86  1  0.63700500  0.46680900  0.05441700  1
  C  89  1  0.85580400  0.70899600  0.97014800  1
  C  90  1  0.77421200  0.68631700  0.96664900  1
  C  91  1  0.94526000  0.69300300  0.98126900  1
  C  92  1  0.97895800  0.66638400  0.96558900  1
  C  95  1  0.89131600  0.64601500  0.96247900  1
  C  96  1  0.80346700  0.66025200  0.95044400  1
  C  101  1  0.83457800  0.67138700  0.92538700  1
  C  102  1  0.91677000  0.69408600  0.92711800  1
  C  105  1  0.00216100  0.67827900  0.93974200  1
  C  108  1  0.88554200  0.71946800  0.94423500  1
  C  111  1  0.41685600  0.70366500  0.27858600  1
  C  112  1  0.49083000  0.68022600  0.28614900  1
  C  113  1  0.32619900  0.68642800  0.26894600  1
  C  114  1  0.28233600  0.66465200  0.28803300  1
  C  117  1  0.36482300  0.64386300  0.29565100  1
  C  118  1  0.45402100  0.65925600  0.30607200  1
  C  123  1  0.42262900  0.67687300  0.32825900  1
  C  124  1  0.34614900  0.70040000  0.32202700  1
  C  127  1  0.25902100  0.68327600  0.31113900  1
  C  130  1  0.38348200  0.72082000  0.30159500  1
  C  133  1  0.83552400  0.54356600  0.27903000  1
  C  134  1  0.75268200  0.56456300  0.28513400  1
  C  135  1  0.91924800  0.56360500  0.26915900  1
  C  136  1  0.95125200  0.58801200  0.28761600  1
  C  139  1  0.86159200  0.60686700  0.29338900  1
  C  140  1  0.77943600  0.58823200  0.30389000  1
  C  145  1  0.81304800  0.57324300  0.32716700  1
  C  146  1  0.89948400  0.55253300  0.32268900  1
  C  149  1  0.98021400  0.57211200  0.31152000  1
  C  152  1  0.87297000  0.52940200  0.30307200  1
  C  155  1  0.39821200  0.54309100  0.97110400  1
  C  156  1  0.48896600  0.56174500  0.96745600  1
  C  157  1  0.31935100  0.56322800  0.98246600  1
  C  158  1  0.29858600  0.59059300  0.96621800  1
  C  161  1  0.39347500  0.60773500  0.96319500  1
  C  162  1  0.47140400  0.58872200  0.95126900  1
  C  167  1  0.43715700  0.57815500  0.92632100  1
  C  168  1  0.34466400  0.55940100  0.92823800  1
  C  171  1  0.26817500  0.57930800  0.94072500  1
  C  174  1  0.36255900  0.53299300  0.94563800  1
  C  177  1  0.63907800  0.79141600  0.02764200  1
  C  178  1  0.72099600  0.81380400  0.03156400  1
  C  179  1  0.55058200  0.80768300  0.01655800  1
  C  180  1  0.51630500  0.83351600  0.03302200  1
  C  183  1  0.60360800  0.85385100  0.03679700  1
  C  184  1  0.69160400  0.83919500  0.04843800  1
  C  189  1  0.66082000  0.82686300  0.07313100  1
  C  190  1  0.57869800  0.80418000  0.07080000  1
  C  193  1  0.49321100  0.82052700  0.05856700  1
  C  196  1  0.60917900  0.77938600  0.05299700  1
  C  199  1  0.08678900  0.79213700  0.72032300  1
  C  200  1  0.01097600  0.81561900  0.71413600  1
  C  201  1  0.17686600  0.80885300  0.73086900  1
  C  202  1  0.21896900  0.83242400  0.71312600  1
  C  205  1  0.13521100  0.85334700  0.70697600  1
  C  206  1  0.04672100  0.83855200  0.69567000  1
  C  211  1  0.07872100  0.82321900  0.67237600  1
  C  212  1  0.15683100  0.79970800  0.67708700  1
  C  215  1  0.24307700  0.81622300  0.68893100  1
  C  218  1  0.12076700  0.77727700  0.69627300  1
  C  221  1  0.65610400  0.95478000  0.72118400  1
  C  222  1  0.74157800  0.93446700  0.71602000  1
  C  223  1  0.57432900  0.93452600  0.73170300  1
  C  224  1  0.54623500  0.90870800  0.71425000  1
  C  227  1  0.63813400  0.89044000  0.70965000  1
  C  228  1  0.71820000  0.90926400  0.69842200  1
  C  233  1  0.68392400  0.92229800  0.67438600  1
  C  234  1  0.59496800  0.94226600  0.67776600  1
  C  237  1  0.51623500  0.92259100  0.68961400  1
  C  240  1  0.61806300  0.96695100  0.69644800  1
  C  243  1  0.09508300  0.95707000  0.02868600  1
  C  244  1  0.00527300  0.93800500  0.03242000  1
  C  245  1  0.17473300  0.93690300  0.01734200  1
  C  246  1  0.19615700  0.90920100  0.03314100  1
  C  249  1  0.10135600  0.89196600  0.03598000  1
  C  250  1  0.02357700  0.91070900  0.04824500  1
  C  255  1  0.05847300  0.92072300  0.07328400  1
  C  256  1  0.15099500  0.93947100  0.07150800  1
  C  259  1  0.22719300  0.91989300  0.05870300  1
  C  262  1  0.13244900  0.96614100  0.05441600  1
  C  265  1  0.35856500  0.20929400  0.96973300  1
  C  266  1  0.27557900  0.18695700  0.96737900  1
  C  267  1  0.44734200  0.19325700  0.98102200  1
  C  268  1  0.47923300  0.16637300  0.96543200  1
  C  271  1  0.39092000  0.14622400  0.96296000  1
  C  272  1  0.30263800  0.16059300  0.95131200  1
  C  277  1  0.33188900  0.17150100  0.92599200  1
  C  278  1  0.41516100  0.19391500  0.92697800  1
  C  281  1  0.50086900  0.17781800  0.93932100  1
  C  284  1  0.38734900  0.21987500  0.94392100  1
  C  287  1  0.91328400  0.20423700  0.27729200  1
  C  288  1  0.98848000  0.18081100  0.28412300  1
  C  289  1  0.82297400  0.18714600  0.26723500  1
  C  290  1  0.78025400  0.16441200  0.28570300  1
  C  293  1  0.86368200  0.14365800  0.29253300  1
  C  294  1  0.95248800  0.15881900  0.30333700  1
  C  299  1  0.92086400  0.17531000  0.32611500  1
  C  300  1  0.84322600  0.19875000  0.32067900  1
  C  303  1  0.75663600  0.18183000  0.30937600  1
  C  306  1  0.87947800  0.22022900  0.30083600  1
  C  309  1  0.33990800  0.04192200  0.27911800  1
  C  310  1  0.25521600  0.06254600  0.28428200  1
  C  311  1  0.42277000  0.06195100  0.26880100  1
  C  312  1  0.45186500  0.08755700  0.28638500  1
  C  315  1  0.36061100  0.10610300  0.29103300  1
  C  316  1  0.27944200  0.08753100  0.30205500  1
  C  321  1  0.31286400  0.07421000  0.32604800  1
  C  322  1  0.40095100  0.05386300  0.32266700  1
  C  325  1  0.48082100  0.07330500  0.31097200  1
  C  328  1  0.37688700  0.02943200  0.30385900  1
  C  331  1  0.89668800  0.04263200  0.97062300  1
  C  332  1  0.98790200  0.06124400  0.96753300  1
  C  333  1  0.81752400  0.06263100  0.98204600  1
  C  334  1  0.79798600  0.09039500  0.96617700  1
  C  337  1  0.89320800  0.10742500  0.96371900  1
  C  338  1  0.97122800  0.08858000  0.95170700  1
  C  343  1  0.93791800  0.07861100  0.92649200  1
  C  344  1  0.84503200  0.05997600  0.92785200  1
  C  347  1  0.76842400  0.07972600  0.94045800  1
  C  350  1  0.86210000  0.03314000  0.94489000  1
  C  353  1  0.14654500  0.78672100  0.53221300  1
  C  354  1  0.22387500  0.81029500  0.52767200  1
  C  355  1  0.04681500  0.80299700  0.52883000  1
  C  356  1  0.03242100  0.83060500  0.54604000  1
  C  359  1  0.11823400  0.85132900  0.54116800  1
  C  360  1  0.21695600  0.83660900  0.54488000  1
  C  365  1  0.22141300  0.82601400  0.57125400  1
  C  366  1  0.14258100  0.80336100  0.57724100  1
  C  369  1  0.04559200  0.81869900  0.57257100  1
  C  372  1  0.15192600  0.77745000  0.55948400  1
  C  375  1  0.61375100  0.78361700  0.21530000  1
  C  376  1  0.53657800  0.80568600  0.22382700  1
  C  377  1  0.71297600  0.79989100  0.21799900  1
  C  378  1  0.71867400  0.82918400  0.20269800  1
  C  381  1  0.63396200  0.84881300  0.21085800  1
  C  382  1  0.53481400  0.83383300  0.20848300  1
  C  387  1  0.52118900  0.82558200  0.18160000  1
  C  388  1  0.59984700  0.80467700  0.17218500  1
  C  391  1  0.69690200  0.82027300  0.17581400  1
  C  394  1  0.59954800  0.77671700  0.18783600  1
  C  397  1  0.14545800  0.95855500  0.21726900  1
  C  398  1  0.22145500  0.93577000  0.22496500  1
  C  399  1  0.04486700  0.94297400  0.22008300  1
  C  400  1  0.03625500  0.91398700  0.20439800  1
  C  403  1  0.11773200  0.89336400  0.21259000  1
  C  404  1  0.21708700  0.90774400  0.20962400  1
  C  409  1  0.23219600  0.91607100  0.18280500  1
  C  410  1  0.15504500  0.93795500  0.17378900  1
  C  413  1  0.05639100  0.92329900  0.17755200  1
  C  416  1  0.15912500  0.96568600  0.18978700  1
  C  419  1  0.60116700  0.96173300  0.53223300  1
  C  420  1  0.52669500  0.93788400  0.52611300  1
  C  421  1  0.70289000  0.94640800  0.52875200  1
  C  422  1  0.71772800  0.91767100  0.54479800  1
  C  425  1  0.63612100  0.89647600  0.53763600  1
  C  426  1  0.53687600  0.91029300  0.54169200  1
  C  431  1  0.52628000  0.91883200  0.56848100  1
  C  432  1  0.60247000  0.94161700  0.57633700  1
  C  435  1  0.70185800  0.92776400  0.57171000  1
  C  438  1  0.59251200  0.96881400  0.55992600  1
  C  441  1  0.85006400  0.21391300  0.46522500  1
  C  442  1  0.77302600  0.19015500  0.46938300  1
  C  443  1  0.94994000  0.19777700  0.46870800  1
  C  444  1  0.96543400  0.17040000  0.45132000  1
  C  447  1  0.87986000  0.14946400  0.45580000  1
  C  448  1  0.78108000  0.16407000  0.45195700  1
  C  453  1  0.77745800  0.17500300  0.42568900  1
  C  454  1  0.85612200  0.19786600  0.42007000  1
  C  457  1  0.95320000  0.18258000  0.42484800  1
  C  460  1  0.84569600  0.22354500  0.43802100  1
  C  463  1  0.38228900  0.21354700  0.78195800  1
  C  464  1  0.45958700  0.19150700  0.77346600  1
  C  465  1  0.28307000  0.19736400  0.77899900  1
  C  466  1  0.27688200  0.16804300  0.79421300  1
  C  469  1  0.36174100  0.14838300  0.78614600  1
  C  470  1  0.46091400  0.16328600  0.78872300  1
  C  475  1  0.47392400  0.17130900  0.81566600  1
  C  476  1  0.39522100  0.19220000  0.82502200  1
  C  479  1  0.29808300  0.17681900  0.82114500  1
  C  482  1  0.39610900  0.22025700  0.80948200  1
  C  485  1  0.85054400  0.03868800  0.78216700  1
  C  486  1  0.77413400  0.06121100  0.77421800  1
  C  487  1  0.95092800  0.05421900  0.77895400  1
  C  488  1  0.95944800  0.08353100  0.79417300  1
  C  491  1  0.87782000  0.10392700  0.78572000  1
  C  492  1  0.77864400  0.08959700  0.78906300  1
  C  497  1  0.76411000  0.08192100  0.81603500  1
  C  498  1  0.84156000  0.06026500  0.82531700  1
  C  501  1  0.94012800  0.07483300  0.82119500  1
  C  504  1  0.83733000  0.03215400  0.80976300  1
  C  507  1  0.39390000  0.04017800  0.46861000  1
  C  508  1  0.46935200  0.06407200  0.47371100  1
  C  509  1  0.29304500  0.05588000  0.47165500  1
  C  510  1  0.27918900  0.08329700  0.45414200  1
  C  513  1  0.36161400  0.10477900  0.45998100  1
  C  514  1  0.46026500  0.09030400  0.45664100  1
  C  519  1  0.47045200  0.07945600  0.43044100  1
  C  520  1  0.39320800  0.05647100  0.42371300  1
  C  523  1  0.29436400  0.07123400  0.42774200  1
  C  526  1  0.40146100  0.03041000  0.44148100  1
  C  529  1  0.64666100  0.28884500  0.53202500  1
  C  530  1  0.72420800  0.31263800  0.52882800  1
  C  531  1  0.54727300  0.30511500  0.52891800  1
  C  532  1  0.53194700  0.33121500  0.54755800  1
  C  535  1  0.61764900  0.35237200  0.54419600  1
  C  536  1  0.71625200  0.33744400  0.54742500  1
  C  541  1  0.71970400  0.32447500  0.57306300  1
  C  542  1  0.64071800  0.30133100  0.57762400  1
  C  545  1  0.54380000  0.31722700  0.57347500  1
  C  548  1  0.65015500  0.27679400  0.55852200  1
  C  551  1  0.11024300  0.28562400  0.21513200  1
  C  552  1  0.03274600  0.30758700  0.22362300  1
  C  553  1  0.20932700  0.30197600  0.21792900  1
  C  554  1  0.21498000  0.33133000  0.20268300  1
  C  557  1  0.13002300  0.35085000  0.21086500  1
  C  558  1  0.03100300  0.33580300  0.20836400  1
  C  563  1  0.01772400  0.32769200  0.18142700  1
  C  564  1  0.09665600  0.30686000  0.17205800  1
  C  567  1  0.19350300  0.32249100  0.17578500  1
  C  570  1  0.09636700  0.27884500  0.18763600  1
  C  573  1  0.64255100  0.46055800  0.21674100  1
  C  574  1  0.71777600  0.43784400  0.22508200  1
  C  575  1  0.54151300  0.44522600  0.21944900  1
  C  576  1  0.53326000  0.41590500  0.20420300  1
  C  579  1  0.61388700  0.39534000  0.21301600  1
  C  580  1  0.71367600  0.40947100  0.21015800  1
  C  585  1  0.73035600  0.41719000  0.18326300  1
  C  586  1  0.65415600  0.43900500  0.17368100  1
  C  589  1  0.55505800  0.42458300  0.17729400  1
  C  592  1  0.65789900  0.46708900  0.18924700  1
  C  595  1  0.10208300  0.46221000  0.53277000  1
  C  596  1  0.02720500  0.43822800  0.52730900  1
  C  597  1  0.20349100  0.44666800  0.52950100  1
  C  598  1  0.21834000  0.41849700  0.54620600  1
  C  601  1  0.13630300  0.39711800  0.53972000  1
  C  602  1  0.03737100  0.41122100  0.54358400  1
  C  607  1  0.02769300  0.42072200  0.57013500  1
  C  608  1  0.10423800  0.44368100  0.57732900  1
  C  611  1  0.20338400  0.42951500  0.57290600  1
  C  614  1  0.09417000  0.47027600  0.56028900  1
  C  617  1  0.35087000  0.71129700  0.46596600  1
  C  618  1  0.27393500  0.68727200  0.46888200  1
  C  619  1  0.45052500  0.69522600  0.46922600  1
  C  620  1  0.46717200  0.66928200  0.45049500  1
  C  623  1  0.38187000  0.64789200  0.45352000  1
  C  624  1  0.28309200  0.66264000  0.45013900  1
  C  629  1  0.28029000  0.67579400  0.42458100  1
  C  630  1  0.35885500  0.69915000  0.42031600  1
  C  633  1  0.45603900  0.68343900  0.42461700  1
  C  636  1  0.34808000  0.72351400  0.43951000  1
  C  639  1  0.88649600  0.71128600  0.78216000  1
  C  640  1  0.96408600  0.68912200  0.77409500  1
  C  641  1  0.78744000  0.69493500  0.77950000  1
  C  642  1  0.78152400  0.66596300  0.79520300  1
  C  645  1  0.86649000  0.64619900  0.78741700  1
  C  646  1  0.96553200  0.66125500  0.78977800  1
  C  651  1  0.97847000  0.66992900  0.81659000  1
  C  652  1  0.89951800  0.69098000  0.82558200  1
  C  655  1  0.80262400  0.67536600  0.82199200  1
  C  658  1  0.90005600  0.71863000  0.80959000  1
  C  661  1  0.35511800  0.53660900  0.78305500  1
  C  662  1  0.27926400  0.55916600  0.77479300  1
  C  663  1  0.45578500  0.55202100  0.78005700  1
  C  664  1  0.46397100  0.58141100  0.79517200  1
  C  667  1  0.38288600  0.60185500  0.78644300  1
  C  668  1  0.28342400  0.58762200  0.78956300  1
  C  673  1  0.26767600  0.58006600  0.81650600  1
  C  674  1  0.34445500  0.55839200  0.82605300  1
  C  677  1  0.44331300  0.57288700  0.82217200  1
  C  680  1  0.34065400  0.53019900  0.81060800  1
  C  683  1  0.89455600  0.53912000  0.46798500  1
  C  684  1  0.97071400  0.56303500  0.47234900  1
  C  685  1  0.79419400  0.55509900  0.47097400  1
  C  686  1  0.78006400  0.58194100  0.45289300  1
  C  689  1  0.86320200  0.60346700  0.45796400  1
  C  690  1  0.96137400  0.58867000  0.45468300  1
  C  695  1  0.97000800  0.57694200  0.42875100  1
  C  696  1  0.89209200  0.55390000  0.42275000  1
  C  699  1  0.79366600  0.56902300  0.42671400  1
  C  702  1  0.90063400  0.52842800  0.44107100  1
  C  705  1  0.99090200  0.30754400  0.11036200  1
  C  707  1  0.07935500  0.29961200  0.14617900  1
  C  709  1  0.13540900  0.28097200  0.10918500  1
  C  710  1  0.06302000  0.29534400  0.09601500  1
  C  713  1  0.74933000  0.28982400  0.63826100  1
  C  715  1  0.65455200  0.28933200  0.60261400  1
  C  717  1  0.59303400  0.27095500  0.63925300  1
  C  718  1  0.67044000  0.28271100  0.65249600  1
  C  721  1  0.99936400  0.44575200  0.63911300  1
  C  723  1  0.08839500  0.45240900  0.60307800  1
  C  725  1  0.14437100  0.47189900  0.63989400  1
  C  726  1  0.07374100  0.45688100  0.65324200  1
  C  729  1  0.74841200  0.43444900  0.11087000  1
  C  731  1  0.67068100  0.44574700  0.14765600  1
  C  733  1  0.61253700  0.46496000  0.11098300  1
  C  734  1  0.67805100  0.44861500  0.09713500  1
  C  737  1  0.00580300  0.69171600  0.88719700  1
  C  739  1  0.91672800  0.69876400  0.85135800  1
  C  741  1  0.86058200  0.71792400  0.88815200  1
  C  742  1  0.93353400  0.70399300  0.90144200  1
  C  745  1  0.25029000  0.71059200  0.35972500  1
  C  747  1  0.34520800  0.71128400  0.39535900  1
  C  749  1  0.40755100  0.72864700  0.35848600  1
  C  750  1  0.32981900  0.71677200  0.34543800  1
  C  753  1  0.99711200  0.54873000  0.36112100  1
  C  755  1  0.90748000  0.54362000  0.39732800  1
  C  757  1  0.84786200  0.52500000  0.36054500  1
  C  758  1  0.92030600  0.53909900  0.34711500  1
  C  761  1  0.25073500  0.56361600  0.88884000  1
  C  763  1  0.32859200  0.55188200  0.85215500  1
  C  765  1  0.38787100  0.53362900  0.88906500  1
  C  766  1  0.32203500  0.55010600  0.90269300  1
  C  769  1  0.49074600  0.80523500  0.11085900  1
  C  771  1  0.58160000  0.79739900  0.14633200  1
  C  773  1  0.63571700  0.77896500  0.10906200  1
  C  774  1  0.56232100  0.79328700  0.09621500  1
  C  777  1  0.25086100  0.79524100  0.63834500  1
  C  779  1  0.15659000  0.79318100  0.60272700  1
  C  781  1  0.09823000  0.77363600  0.63926200  1
  C  782  1  0.17427400  0.78602000  0.65259800  1
  C  785  1  0.50063000  0.94129800  0.63854900  1
  C  787  1  0.58701500  0.94941900  0.60231000  1
  C  789  1  0.64291300  0.96883300  0.63918800  1
  C  790  1  0.57331300  0.95354500  0.65265500  1
  C  793  1  0.24649200  0.93446300  0.11068000  1
  C  795  1  0.17000300  0.94518800  0.14776500  1
  C  797  1  0.10887200  0.96418600  0.11128900  1
  C  798  1  0.17437400  0.94814700  0.09720100  1
  C  801  1  0.50158200  0.19105800  0.88666000  1
  C  803  1  0.41247200  0.19921100  0.85095500  1
  C  805  1  0.35677800  0.21747200  0.88811300  1
  C  806  1  0.43007000  0.20335300  0.90113100  1
  C  809  1  0.74822200  0.20603400  0.35897500  1
  C  811  1  0.84247000  0.20823800  0.39461500  1
  C  813  1  0.90294200  0.22615500  0.35774500  1
  C  814  1  0.82624200  0.21377300  0.34464500  1
  C  817  1  0.49642100  0.05338000  0.36171000  1
  C  819  1  0.40876500  0.04702900  0.39807700  1
  C  821  1  0.35047300  0.02777000  0.36135000  1
  C  822  1  0.42160500  0.04221500  0.34774200  1
  C  825  1  0.75093200  0.06503100  0.88845700  1
  C  827  1  0.82721600  0.05363600  0.85148000  1
  C  829  1  0.88851400  0.03527500  0.88818300  1
  C  830  1  0.82275400  0.05142400  0.90208800  1
  C  833  1  0.84374800  0.34189200  0.02390200  1
  C  835  1  0.77709200  0.39000900  0.02338800  1
  C  837  1  0.94172200  0.38288100  0.01731100  1
  C  838  1  0.93731800  0.35257600  0.02275900  1
  C  841  1  0.89735800  0.34038100  0.71841500  1
  C  843  1  0.96746600  0.38831200  0.72067400  1
  C  845  1  0.80068200  0.38129400  0.72511100  1
  C  846  1  0.80335800  0.35090500  0.71974500  1
  C  849  1  0.15639300  0.65915800  0.97361700  1
  C  851  1  0.22276000  0.61103200  0.97526000  1
  C  853  1  0.05842700  0.61850800  0.98151400  1
  C  854  1  0.06281700  0.64860600  0.97532100  1
  C  857  1  0.10200400  0.65628400  0.28122500  1
  C  859  1  0.03224600  0.60816900  0.28015400  1
  C  861  1  0.19911300  0.61525600  0.27569400  1
  C  862  1  0.19619100  0.64587600  0.28014200  1
  C  865  1  0.33889900  0.84089400  0.02499100  1
  C  867  1  0.27211600  0.88899200  0.02378500  1
  C  869  1  0.43681100  0.88177200  0.01788800  1
  C  870  1  0.43244700  0.85154400  0.02362300  1
  C  873  1  0.39820000  0.84032600  0.72084400  1
  C  875  1  0.46704200  0.88843800  0.72234400  1
  C  877  1  0.30078800  0.88124300  0.72709600  1
  C  878  1  0.30418900  0.85079700  0.72196100  1
  C  881  1  0.65643100  0.15902500  0.97321400  1
  C  883  1  0.72245600  0.11087200  0.97526700  1
  C  885  1  0.55829900  0.11847800  0.98146400  1
  C  886  1  0.56292200  0.14851700  0.97506100  1
  C  889  1  0.60038400  0.15595500  0.27879000  1
  C  891  1  0.53172100  0.10772300  0.27835000  1
  C  893  1  0.69792900  0.11499500  0.27318300  1
  C  894  1  0.69459500  0.14562500  0.27758200  1
  C  897  1  0.88345200  0.85725500  0.56294000  1
  C  899  1  0.80626600  0.89806700  0.54345700  1
  C  901  1  0.92229000  0.86814900  0.52302400  1
  C  902  1  0.94314800  0.85030400  0.54333700  1
  C  905  1  0.86218400  0.85707200  0.18461800  1
  C  907  1  0.94743400  0.89492200  0.20548800  1
  C  909  1  0.83596200  0.86371900  0.22593900  1
  C  910  1  0.80839800  0.84840000  0.20482800  1
  C  913  1  0.11401300  0.14321300  0.43469000  1
  C  915  1  0.19118000  0.10305900  0.45495900  1
  C  917  1  0.07545700  0.13351500  0.47486200  1
  C  918  1  0.05470600  0.15078900  0.45422800  1
  C  921  1  0.12928900  0.14224400  0.81213700  1
  C  923  1  0.04787900  0.10261400  0.79267000  1
  C  925  1  0.16178800  0.13218900  0.77156900  1
  C  926  1  0.18669100  0.14905900  0.79209200  1
  C  929  1  0.38495700  0.35845900  0.56485700  1
  C  931  1  0.30671900  0.39884800  0.54504700  1
  C  933  1  0.42201300  0.36867600  0.52467200  1
  C  934  1  0.44316400  0.35106700  0.54508600  1
  C  937  1  0.35873400  0.35909700  0.18456600  1
  C  939  1  0.44403200  0.39702000  0.20529800  1
  C  941  1  0.33200700  0.36606500  0.22582600  1
  C  942  1  0.30464700  0.35058800  0.20477900  1
  C  945  1  0.61447300  0.64186200  0.43343700  1
  C  947  1  0.69240700  0.60182900  0.45368800  1
  C  949  1  0.57694200  0.63221400  0.47370600  1
  C  950  1  0.55616600  0.64956100  0.45312900  1
  C  953  1  0.63644800  0.63922700  0.81359900  1
  C  955  1  0.55282100  0.60033300  0.79374400  1
  C  957  1  0.66531100  0.63047300  0.77264700  1
  C  958  1  0.69171000  0.64678300  0.79333900  1
  C  961  1  0.36473500  0.35045500  0.06091500  1
  C  963  1  0.44056700  0.39427700  0.05071400  1
  C  965  1  0.27725400  0.38951900  0.04321100  1
  C  966  1  0.27805900  0.36034700  0.05113800  1
  C  969  1  0.37776500  0.34869300  0.67900900  1
  C  971  1  0.30472600  0.39227300  0.69059500  1
  C  973  1  0.47174300  0.38941200  0.69114500  1
  C  974  1  0.46725500  0.35934800  0.68648000  1
  C  977  1  0.63447500  0.64959200  0.93787200  1
  C  979  1  0.55925800  0.60577500  0.94832800  1
  C  981  1  0.72223000  0.61093000  0.95612100  1
  C  982  1  0.72115800  0.63992400  0.94777800  1
  C  985  1  0.62312700  0.65010600  0.31971200  1
  C  987  1  0.69468100  0.60565100  0.30990900  1
  C  989  1  0.52776100  0.60880500  0.30988600  1
  C  990  1  0.53308400  0.63915300  0.31302000  1
  C  993  1  0.86087200  0.84949000  0.06104000  1
  C  995  1  0.93586400  0.89356300  0.05117300  1
  C  997  1  0.77230600  0.88878800  0.04402200  1
  C  998  1  0.77376600  0.85948600  0.05160500  1
  C  1001  1  0.87828600  0.84861500  0.68204700  1
  C  1003  1  0.80447200  0.89212400  0.69353100  1
  C  1005  1  0.97083400  0.88882900  0.69599500  1
  C  1006  1  0.96705600  0.85902200  0.69022100  1
  C  1009  1  0.13333200  0.14985600  0.93920500  1
  C  1011  1  0.05888500  0.10579600  0.94930300  1
  C  1013  1  0.22082100  0.11147600  0.95794700  1
  C  1014  1  0.21987300  0.14034800  0.94926800  1
  C  1017  1  0.12104500  0.14914200  0.31709400  1
  C  1019  1  0.19369800  0.10494200  0.30697700  1
  C  1021  1  0.02721900  0.10835900  0.30499100  1
  C  1022  1  0.03181500  0.13848200  0.30948100  1
  C  1025  1  0.39380900  0.84448000  0.54337800  1
  C  1027  1  0.45946300  0.89018400  0.53583400  1
  C  1029  1  0.29355300  0.88466800  0.53293800  1
  C  1030  1  0.30088000  0.85541800  0.54010800  1
  C  1033  1  0.35876800  0.84116800  0.21406500  1
  C  1035  1  0.29440700  0.88806700  0.21696300  1
  C  1037  1  0.45980600  0.88214800  0.22107100  1
  C  1038  1  0.45210700  0.85221900  0.21584600  1
  C  1041  1  0.60427900  0.15595400  0.45308300  1
  C  1043  1  0.53881700  0.11043100  0.46128600  1
  C  1045  1  0.70488200  0.11579500  0.46340100  1
  C  1046  1  0.69730100  0.14507500  0.45633900  1
  C  1049  1  0.63700300  0.15603300  0.78340600  1
  C  1051  1  0.70139400  0.10908800  0.78137200  1
  C  1053  1  0.53631600  0.11493200  0.77649700  1
  C  1054  1  0.54377900  0.14493300  0.78145300  1
  C  1057  1  0.89322200  0.34563000  0.54670900  1
  C  1059  1  0.95897400  0.39116000  0.53857800  1
  C  1061  1  0.79267000  0.38607400  0.53719100  1
  C  1062  1  0.80016000  0.35664600  0.54383300  1
  C  1065  1  0.85492200  0.34298000  0.21388100  1
  C  1067  1  0.79015800  0.38972300  0.21793100  1
  C  1069  1  0.95566400  0.38377100  0.22183500  1
  C  1070  1  0.94816000  0.35403900  0.21586800  1
  C  1073  1  0.10628200  0.65420700  0.45052500  1
  C  1075  1  0.04102700  0.60862500  0.45846700  1
  C  1077  1  0.20729400  0.61364800  0.45941700  1
  C  1078  1  0.19945200  0.64323600  0.45331600  1
  C  1081  1  0.14168200  0.65398700  0.78452100  1
  C  1083  1  0.20644100  0.60714200  0.78175200  1
  C  1085  1  0.04105400  0.61290600  0.77749000  1
  C  1086  1  0.04848000  0.64284500  0.78268400  1
  C  1089  1  0.26096300  0.24908100  0.02241600  1
  C  1091  1  0.31634500  0.23348100  0.98434900  1
  C  1093  1  0.19084600  0.26842400  0.98727200  1
  C  1094  1  0.19120100  0.26802000  0.01261900  1
  C  1097  1  0.44888600  0.25612500  0.72813100  1
  C  1099  1  0.40561800  0.24045100  0.76735000  1
  C  1101  1  0.53415900  0.27444300  0.76142100  1
  C  1102  1  0.52603100  0.27354900  0.73625500  1
  C  1105  1  0.27849000  0.49582400  0.72910100  1
  C  1107  1  0.32902900  0.51013300  0.76816700  1
  C  1109  1  0.20501500  0.47446100  0.76290600  1
  C  1110  1  0.20759000  0.47632800  0.73765300  1
  C  1113  1  0.51236100  0.50687500  0.02324000  1
  C  1115  1  0.43342800  0.51861200  0.98665800  1
  C  1117  1  0.54209900  0.47868900  0.98855500  1
  C  1118  1  0.56231500  0.48294400  0.01322500  1
  C  1121  1  0.77259600  0.75880000  0.97652000  1
  C  1123  1  0.68297100  0.76849800  0.01188700  1
  C  1125  1  0.78218000  0.72645700  0.00955200  1
  C  1126  1  0.81131200  0.73260700  0.98577700  1
  C  1129  1  0.54963800  0.74110300  0.26939200  1
  C  1131  1  0.59067800  0.75676200  0.23002500  1
  C  1133  1  0.46258100  0.72266700  0.23644900  1
  C  1134  1  0.47225200  0.72355300  0.26157500  1
  C  1137  1  0.71580800  0.50197200  0.27085200  1
  C  1139  1  0.66869600  0.48702700  0.23166900  1
  C  1141  1  0.79276200  0.52267300  0.23727400  1
  C  1142  1  0.78782000  0.52123200  0.26251500  1
  C  1145  1  0.95810000  0.75282200  0.72801800  1
  C  1147  1  0.90998600  0.73786600  0.76712500  1
  C  1149  1  0.03647100  0.77267700  0.76175700  1
  C  1150  1  0.03270500  0.77100100  0.73654000  1
  C  1153  1  0.77096400  0.99786300  0.72832400  1
  C  1155  1  0.82382800  0.01229900  0.76721800  1
  C  1157  1  0.70043300  0.97636700  0.76244400  1
  C  1158  1  0.70123300  0.97816300  0.73716100  1
  C  1161  1  0.00464500  0.00545900  0.02313100  1
  C  1163  1  0.93068400  0.01784000  0.98602600  1
  C  1165  1  0.04029300  0.97817600  0.98833000  1
  C  1166  1  0.05725400  0.98201500  0.01320500  1
  C  1169  1  0.04406900  0.24265200  0.26892300  1
  C  1171  1  0.08703500  0.25868600  0.22976200  1
  C  1173  1  0.95979400  0.22414000  0.23556100  1
  C  1174  1  0.96779000  0.22490000  0.26073200  1
  C  1177  1  0.22448800  0.99895100  0.27161100  1
  C  1179  1  0.17242500  0.98467900  0.23257100  1
  C  1181  1  0.29528100  0.02077500  0.23769900  1
  C  1182  1  0.29430700  0.01875800  0.26297000  1
  C  1185  1  0.24584900  0.74043800  0.52252300  1
  C  1187  1  0.31484200  0.73409300  0.48359700  1
  C  1189  1  0.18325100  0.76711100  0.49016500  1
  C  1190  1  0.17977300  0.76223000  0.51521600  1
  C  1193  1  0.49473500  0.00722200  0.52429700  1
  C  1195  1  0.42958200  0.01611200  0.48524300  1
  C  1197  1  0.56498300  0.98422500  0.49107600  1
  C  1198  1  0.56518600  0.98709500  0.51637300  1
  C  1201  1  0.74869400  0.25964400  0.47525800  1
  C  1203  1  0.68136000  0.26590400  0.51437000  1
  C  1205  1  0.81289400  0.23299700  0.50742700  1
  C  1206  1  0.81582200  0.23808000  0.48239900  1
  C  1209  1  0.99708400  0.50780200  0.52407600  1
  C  1211  1  0.93029400  0.51553000  0.48504600  1
  C  1213  1  0.06467900  0.48335000  0.49119800  1
  C  1214  1  0.06620400  0.48710300  0.51641200  1
  H  5  1  0.99808000  0.29318200  0.01347600  1
  H  6  1  0.07426700  0.31740500  0.99881000  1
  H  9  1  0.12980900  0.36320400  0.01860800  1
  H  10  1  0.08744300  0.37313700  0.04747500  1
  H  11  1  0.24815100  0.32309800  0.01406800  1
  H  12  1  0.28655800  0.30353900  0.03925100  1
  H  15  1  0.14303800  0.34617700  0.08429500  1
  H  16  1  0.22445500  0.31770400  0.08126400  1
  H  18  1  0.97367000  0.34049400  0.06908000  1
  H  19  1  0.93675400  0.30711600  0.05696100  1
  H  21  1  0.16520300  0.26809000  0.06148800  1
  H  22  1  0.05049000  0.26554100  0.05058000  1
  H  27  1  0.72618400  0.29457200  0.73498400  1
  H  28  1  0.65369800  0.32251000  0.74585200  1
  H  31  1  0.61203700  0.36562400  0.71991900  1
  H  32  1  0.66248600  0.36967600  0.69101400  1
  H  33  1  0.48635500  0.32955800  0.72828100  1
  H  34  1  0.44511200  0.30667700  0.70549800  1
  H  37  1  0.60570400  0.33736400  0.65715900  1
  H  38  1  0.51533800  0.31218000  0.66253500  1
  H  40  1  0.77035800  0.33004500  0.67466500  1
  H  41  1  0.79543000  0.29870000  0.69148100  1
  H  43  1  0.55758700  0.26475300  0.68863900  1
  H  44  1  0.67008600  0.26142300  0.70097700  1
  H  49  1  0.01710400  0.44671500  0.73590400  1
  H  50  1  0.10110100  0.42282100  0.74793900  1
  H  53  1  0.16334000  0.37945700  0.72370300  1
  H  54  1  0.12100600  0.37308400  0.69450800  1
  H  55  1  0.27146000  0.42301800  0.73148700  1
  H  56  1  0.30219000  0.44622700  0.70761000  1
  H  59  1  0.16580400  0.40702900  0.66007800  1
  H  60  1  0.24308100  0.43613600  0.66581300  1
  H  62  1  0.99748800  0.40700300  0.67641800  1
  H  63  1  0.95401200  0.43722300  0.69228000  1
  H  65  1  0.17316600  0.48220400  0.68946800  1
  H  66  1  0.05921500  0.48065800  0.70115900  1
  H  71  1  0.74433200  0.45069600  0.01500200  1
  H  72  1  0.65959900  0.43036200  0.99946100  1
  H  75  1  0.58193000  0.38547500  0.01799100  1
  H  76  1  0.61810900  0.37333600  0.04647900  1
  H  77  1  0.48301700  0.43167900  0.01483200  1
  H  78  1  0.45472700  0.45195500  0.04070200  1
  H  81  1  0.57590900  0.40218000  0.08433600  1
  H  82  1  0.50569800  0.43349400  0.08148100  1
  H  84  1  0.74589200  0.40120300  0.06935300  1
  H  85  1  0.79809800  0.43275800  0.05739300  1
  H  87  1  0.58536000  0.48052100  0.06323800  1
  H  88  1  0.70147700  0.47971400  0.05267400  1
  H  93  1  0.00305500  0.70857100  0.98317000  1
  H  94  1  0.92934800  0.68500800  0.99922100  1
  H  97  1  0.87033000  0.63815700  0.98021500  1
  H  98  1  0.91196400  0.62732700  0.95150300  1
  H  99  1  0.75122800  0.67757800  0.98393600  1
  H  100  1  0.71314000  0.69747200  0.95891000  1
  H  103  1  0.85622000  0.65293700  0.91425600  1
  H  104  1  0.77371800  0.68120100  0.91654700  1
  H  106  1  0.02520500  0.65976100  0.92895600  1
  H  107  1  0.06103600  0.69359300  0.94044000  1
  H  109  1  0.82551400  0.73024300  0.93596400  1
  H  110  1  0.94226600  0.73551100  0.94559300  1
  H  115  1  0.27217100  0.70200500  0.26343000  1
  H  116  1  0.34504700  0.67392500  0.25301600  1
  H  119  1  0.38781400  0.63148600  0.27997000  1
  H  120  1  0.33797300  0.62854700  0.30903900  1
  H  121  1  0.51228200  0.66755800  0.27043400  1
  H  122  1  0.55418900  0.69116400  0.29259400  1
  H  125  1  0.39547500  0.66203000  0.34198400  1
  H  126  1  0.48543000  0.68708100  0.33577500  1
  H  128  1  0.23003900  0.66850500  0.32461300  1
  H  129  1  0.20401400  0.69915200  0.30704500  1
  H  131  1  0.44113800  0.73364400  0.30886900  1
  H  132  1  0.32837300  0.73632500  0.29658500  1
  H  137  1  0.97974200  0.54991900  0.26464500  1
  H  138  1  0.89745000  0.57436500  0.25262100  1
  H  141  1  0.83760600  0.61795700  0.27714000  1
  H  142  1  0.87988200  0.62370200  0.30644200  1
  H  143  1  0.72708000  0.57514000  0.26876900  1
  H  144  1  0.69391300  0.55187500  0.29236700  1
  H  147  1  0.83196600  0.58975100  0.34049500  1
  H  148  1  0.75281000  0.56123700  0.33442300  1
  H  150  1  0.00091900  0.58881100  0.32444700  1
  H  151  1  0.04245800  0.55857600  0.30830000  1
  H  153  1  0.82020000  0.51497200  0.31069100  1
  H  154  1  0.93447400  0.51585300  0.29912500  1
  H  159  1  0.25472100  0.55058400  0.98492200  1
  H  160  1  0.34128400  0.57064300  0.00021800  1
  H  163  1  0.41770900  0.61555800  0.98067500  1
  H  164  1  0.38178600  0.62685600  0.95192400  1
  H  165  1  0.51568400  0.56925800  0.98483400  1
  H  166  1  0.54449800  0.54834100  0.95933200  1
  H  169  1  0.42441300  0.59688800  0.91464400  1
  H  170  1  0.49458000  0.56567200  0.91818800  1
  H  172  1  0.25429800  0.59833800  0.92952000  1
  H  173  1  0.20188200  0.56719600  0.94211200  1
  H  175  1  0.41485800  0.51851200  0.93768500  1
  H  176  1  0.29764500  0.52034600  0.94761000  1
  H  181  1  0.49288400  0.79221300  0.01402300  1
  H  182  1  0.56845600  0.81621600  0.99885600  1
  H  185  1  0.62474800  0.86245300  0.01931100  1
  H  186  1  0.58253700  0.87204800  0.04826900  1
  H  187  1  0.74364000  0.82304700  0.01440500  1
  H  188  1  0.78211000  0.80238000  0.03902500  1
  H  191  1  0.63921300  0.84479100  0.08483200  1
  H  192  1  0.72193400  0.81671100  0.08159300  1
  H  194  1  0.47007000  0.83858700  0.06985400  1
  H  195  1  0.43431900  0.80526100  0.05743600  1
  H  197  1  0.66846500  0.76744100  0.06062300  1
  H  198  1  0.55135300  0.76382700  0.05094800  1
  H  203  1  0.23171100  0.79307500  0.73538700  1
  H  204  1  0.15817100  0.81999300  0.74747000  1
  H  207  1  0.11236300  0.86404400  0.72349900  1
  H  208  1  0.16062200  0.87000900  0.69452600  1
  H  209  1  0.98843000  0.82673500  0.73054000  1
  H  210  1  0.94847800  0.80484200  0.70690300  1
  H  213  1  0.10457400  0.83948600  0.65962000  1
  H  214  1  0.01676300  0.81321400  0.66422900  1
  H  216  1  0.27069100  0.83252900  0.67652300  1
  H  217  1  0.29924300  0.80035500  0.69186800  1
  H  219  1  0.06352700  0.76492300  0.68831100  1
  H  220  1  0.17666000  0.76160900  0.70026100  1
  H  225  1  0.51215400  0.94782500  0.73548000  1
  H  226  1  0.59636100  0.92493600  0.74869500  1
  H  229  1  0.66262600  0.88078700  0.72646400  1
  H  230  1  0.62251700  0.87252300  0.69738300  1
  H  231  1  0.76827600  0.92527700  0.73284500  1
  H  232  1  0.79886800  0.94730000  0.70816300  1
  H  235  1  0.66744000  0.90472300  0.66180200  1
  H  236  1  0.74286400  0.93451300  0.66666667  1
  H  238  1  0.49829000  0.90473600  0.67750600  1
  H  239  1  0.45222000  0.93559200  0.69200600  1
  H  241  1  0.66962100  0.98144200  0.68841000  1
  H  242  1  0.55491900  0.98006400  0.69964700  1
  H  247  1  0.23918500  0.94964900  0.01494900  1
  H  248  1  0.15409200  0.92917500  0.99964400  1
  H  251  1  0.07688200  0.88450700  0.01841500  1
  H  252  1  0.11326300  0.87260800  0.04695600  1
  H  253  1  0.97799000  0.93076800  0.01502700  1
  H  254  1  0.94983400  0.95114900  0.04084900  1
  H  257  1  0.07139900  0.90174200  0.08467500  1
  H  258  1  0.00129900  0.93305600  0.08168200  1
  H  260  1  0.24126900  0.90062400  0.06961500  1
  H  261  1  0.29340300  0.93206400  0.05741200  1
  H  263  1  0.08123400  0.97998800  0.06327300  1
  H  264  1  0.19702400  0.97896600  0.05252900  1
  H  269  1  0.50588100  0.20860100  0.98269000  1
  H  270  1  0.43060700  0.18575300  0.99910800  1
  H  273  1  0.37121800  0.13867500  0.98088400  1
  H  274  1  0.41003100  0.12735000  0.95201900  1
  H  275  1  0.25477200  0.17907000  0.98514200  1
  H  276  1  0.21371000  0.19779900  0.95975800  1
  H  279  1  0.35161900  0.15288100  0.91482300  1
  H  280  1  0.27070400  0.18152300  0.91747600  1
  H  282  1  0.52210800  0.15906300  0.92857300  1
  H  283  1  0.56063400  0.19282100  0.93958800  1
  H  285  1  0.32843600  0.23182900  0.93612800  1
  H  286  1  0.44629600  0.23515600  0.94518700  1
  H  291  1  0.76833200  0.20277800  0.26224100  1
  H  292  1  0.84184500  0.17536700  0.25094000  1
  H  295  1  0.88643200  0.13212200  0.27639200  1
  H  296  1  0.83792400  0.12765800  0.30551500  1
  H  297  1  0.01043100  0.16894600  0.26803000  1
  H  298  1  0.05143600  0.19167100  0.29096000  1
  H  301  1  0.89468400  0.15973300  0.33940100  1
  H  302  1  0.98317200  0.18552200  0.33389900  1
  H  304  1  0.72866800  0.16625400  0.32236100  1
  H  305  1  0.70082400  0.19765500  0.30589100  1
  H  307  1  0.93675400  0.23292900  0.30842400  1
  H  308  1  0.82370000  0.23574000  0.29634700  1
  H  313  1  0.48442700  0.04842800  0.26501700  1
  H  314  1  0.40141900  0.07174100  0.25183300  1
  H  317  1  0.33673800  0.11601000  0.27426200  1
  H  318  1  0.37692400  0.12384300  0.30342100  1
  H  319  1  0.22921200  0.07198300  0.26748400  1
  H  320  1  0.19730500  0.04982000  0.29196000  1
  H  323  1  0.32996700  0.09163100  0.33872600  1
  H  324  1  0.25318300  0.06223200  0.33363900  1
  H  326  1  0.49957700  0.09092700  0.32323700  1
  H  327  1  0.54421700  0.06004600  0.30850600  1
  H  329  1  0.32444800  0.01517700  0.31183700  1
  H  330  1  0.43938100  0.01602400  0.30067500  1
  H  335  1  0.75258400  0.05003100  0.98409900  1
  H  336  1  0.83863000  0.06963000  0.99997600  1
  H  339  1  0.91675600  0.11480400  0.98139200  1
  H  340  1  0.88240200  0.12681500  0.95271000  1
  H  341  1  0.01387000  0.06831900  0.98510800  1
  H  342  1  0.04373100  0.04800900  0.95935700  1
  H  345  1  0.92597400  0.09761100  0.91505600  1
  H  346  1  0.99546200  0.06620900  0.91833100  1
  H  348  1  0.75532200  0.09902100  0.92949900  1
  H  349  1  0.70186700  0.06770300  0.94151600  1
  H  351  1  0.91467400  0.01880800  0.93685700  1
  H  352  1  0.79701800  0.02049800  0.94648600  1
  H  357  1  0.98984200  0.78747700  0.53203200  1
  H  358  1  0.03952200  0.81009700  0.51026400  1
  H  361  1  0.11465600  0.85923000  0.52272100  1
  H  362  1  0.11298100  0.87028700  0.55296500  1
  H  363  1  0.21943700  0.81866700  0.50933000  1
  H  364  1  0.29311500  0.79995600  0.52935100  1
  H  367  1  0.21625900  0.84475600  0.58329600  1
  H  368  1  0.28976200  0.81583600  0.57464600  1
  H  370  1  0.04065900  0.83657500  0.58542200  1
  H  371  1  0.98832400  0.80352400  0.57661800  1
  H  373  1  0.22009100  0.76776700  0.56375400  1
  H  374  1  0.09765900  0.76112700  0.56313700  1
  H  379  1  0.76963000  0.78527500  0.21240600  1
  H  380  1  0.72556200  0.80488100  0.23686500  1
  H  383  1  0.64334800  0.85521400  0.22956900  1
  H  384  1  0.63482900  0.86870000  0.20008800  1
  H  385  1  0.54821200  0.81169500  0.24259400  1
  H  386  1  0.46761300  0.79508700  0.22310200  1
  H  389  1  0.52006100  0.84550700  0.17085100  1
  H  390  1  0.45303700  0.81487000  0.17897100  1
  H  392  1  0.69624000  0.83959400  0.16438400  1
  H  393  1  0.75351600  0.80610500  0.16936400  1
  H  395  1  0.53214500  0.76583700  0.18451400  1
  H  396  1  0.65513100  0.76183500  0.18192800  1
  H  401  1  0.98919400  0.95812300  0.21484400  1
  H  402  1  0.03273700  0.93771000  0.23891800  1
  H  405  1  0.10742800  0.88715300  0.23135000  1
  H  406  1  0.11536300  0.87334100  0.20198700  1
  H  407  1  0.21224200  0.92973300  0.24382000  1
  H  408  1  0.29187200  0.94552200  0.22329700  1
  H  411  1  0.23045200  0.89629800  0.17188800  1
  H  412  1  0.30223500  0.92579100  0.18044200  1
  H  414  1  0.05445800  0.90449900  0.16557600  1
  H  415  1  0.00006400  0.93796000  0.17171000  1
  H  417  1  0.22756100  0.97591600  0.18641500  1
  H  418  1  0.10493800  0.98123000  0.18422100  1
  H  423  1  0.75819600  0.96209500  0.53307200  1
  H  424  1  0.71269400  0.94068200  0.50993600  1
  H  427  1  0.64347600  0.89014000  0.51881400  1
  H  428  1  0.64085700  0.87652800  0.54827400  1
  H  429  1  0.53211800  0.93120200  0.50732100  1
  H  430  1  0.45588400  0.94710000  0.52862300  1
  H  433  1  0.53223100  0.89933100  0.57965000  1
  H  434  1  0.45549500  0.92781600  0.57144700  1
  H  436  1  0.70807000  0.90954100  0.58416100  1
  H  437  1  0.75741200  0.94320800  0.57653400  1
  H  439  1  0.52329900  0.97758700  0.56438200  1
  H  440  1  0.64498700  0.98524800  0.56473200  1
  H  445  1  0.00675700  0.21342800  0.46576900  1
  H  446  1  0.95668800  0.19046700  0.48723200  1
  H  449  1  0.88286600  0.14132600  0.47418700  1
  H  450  1  0.88591000  0.13066700  0.44385200  1
  H  451  1  0.77693000  0.18158200  0.48767400  1
  H  452  1  0.70367400  0.20040000  0.46762400  1
  H  455  1  0.78330400  0.15643100  0.41348600  1
  H  456  1  0.70901600  0.18510400  0.42227700  1
  H  458  1  0.95866400  0.16486100  0.41186900  1
  H  459  1  0.01055400  0.19781900  0.42105100  1
  H  461  1  0.77764200  0.23320900  0.43363800  1
  H  462  1  0.89991400  0.23997100  0.43464500  1
  H  467  1  0.22636100  0.21199200  0.78453300  1
  H  468  1  0.27097200  0.19243200  0.76010100  1
  H  471  1  0.35305800  0.14208700  0.76739900  1
  H  472  1  0.36033700  0.12845000  0.79685100  1
  H  473  1  0.44838600  0.18558500  0.75466400  1
  H  474  1  0.52850300  0.20211200  0.77432200  1
  H  477  1  0.47452300  0.15130500  0.82631600  1
  H  478  1  0.54208400  0.18195000  0.81848700  1
  H  480  1  0.29737200  0.15745400  0.83253600  1
  H  481  1  0.24191800  0.19123100  0.82747800  1
  H  483  1  0.46358300  0.23103000  0.81294200  1
  H  484  1  0.34061300  0.23517600  0.81538300  1
  H  489  1  0.00680600  0.03922900  0.78436300  1
  H  490  1  0.96263800  0.05906200  0.76002400  1
  H  493  1  0.88780800  0.10966900  0.76684600  1
  H  494  1  0.88017800  0.12421600  0.79597200  1
  H  495  1  0.78278000  0.06682300  0.75525400  1
  H  496  1  0.70384900  0.05144200  0.77617300  1
  H  499  1  0.76602400  0.10195600  0.82661800  1
  H  500  1  0.69411500  0.07226200  0.81863200  1
  H  502  1  0.94236600  0.09387300  0.83290100  1
  H  503  1  0.99661200  0.06030600  0.82715900  1
  H  505  1  0.76900200  0.02195800  0.81334300  1
  H  506  1  0.89169000  0.01676500  0.81550700  1
  H  511  1  0.23704100  0.04009300  0.46825600  1
  H  512  1  0.28454700  0.06295800  0.49021000  1
  H  515  1  0.35486600  0.11272300  0.47840100  1
  H  516  1  0.35740600  0.12378000  0.44821100  1
  H  517  1  0.46351200  0.07206300  0.49216500  1
  H  518  1  0.54007900  0.05458300  0.47178000  1
  H  521  1  0.46578600  0.09806700  0.41823900  1
  H  522  1  0.54070100  0.06983600  0.42805500  1
  H  524  1  0.28854800  0.08866700  0.41452700  1
  H  525  1  0.23796300  0.05575600  0.42369300  1
  H  527  1  0.46915200  0.01990100  0.43779200  1
  H  528  1  0.34650800  0.01435000  0.43770800  1
  H  533  1  0.49018100  0.28936000  0.53102100  1
  H  534  1  0.54183100  0.31352200  0.51067000  1
  H  537  1  0.61477500  0.36175400  0.52621300  1
  H  538  1  0.61168400  0.37032100  0.55700500  1
  H  539  1  0.72013400  0.32226100  0.51088000  1
  H  540  1  0.79371400  0.30236200  0.53018300  1
  H  543  1  0.71441000  0.34211300  0.58618500  1
  H  544  1  0.78792000  0.31398400  0.57587900  1
  H  546  1  0.53866000  0.33406200  0.58723000  1
  H  547  1  0.48591100  0.30194800  0.57656100  1
  H  549  1  0.71690800  0.26565200  0.56207700  1
  H  550  1  0.59396000  0.26075300  0.56094800  1
  H  555  1  0.26615100  0.28741900  0.21234700  1
  H  556  1  0.22166500  0.30692100  0.23681300  1
  H  559  1  0.13930400  0.35710800  0.22961000  1
  H  560  1  0.13070800  0.37082700  0.20020600  1
  H  561  1  0.04402700  0.31352200  0.24242000  1
  H  562  1  0.96386000  0.29693500  0.22278400  1
  H  565  1  0.01669500  0.34766800  0.17074600  1
  H  566  1  0.94970600  0.31696000  0.17865900  1
  H  568  1  0.19284400  0.34184400  0.16439300  1
  H  569  1  0.25026200  0.30836200  0.16935400  1
  H  571  1  0.02904200  0.26796600  0.18421200  1
  H  572  1  0.15208800  0.26400400  0.18173600  1
  H  577  1  0.48640500  0.46034100  0.21377500  1
  H  578  1  0.52824900  0.44041600  0.23831800  1
  H  581  1  0.60252100  0.38959700  0.23183900  1
  H  582  1  0.61157100  0.37507700  0.20273200  1
  H  583  1  0.70744200  0.43227600  0.24399500  1
  H  584  1  0.78845000  0.44743200  0.22350800  1
  H  587  1  0.72876000  0.39720500  0.17261000  1
  H  588  1  0.80070400  0.42673400  0.18099000  1
  H  590  1  0.55350700  0.40551800  0.16560300  1
  H  591  1  0.49931600  0.43919200  0.17102000  1
  H  593  1  0.72670000  0.47714200  0.18598400  1
  H  594  1  0.60428500  0.48259600  0.18327000  1
  H  599  1  0.25908400  0.46243500  0.53336200  1
  H  600  1  0.21275200  0.44027300  0.51081300  1
  H  603  1  0.14303100  0.39007200  0.52105700  1
  H  604  1  0.14107000  0.37757100  0.55085500  1
  H  605  1  0.03228200  0.43083100  0.50869600  1
  H  606  1  0.95657400  0.44764000  0.52961400  1
  H  609  1  0.03362200  0.40162400  0.58178200  1
  H  610  1  0.95709600  0.42992100  0.57296500  1
  H  612  1  0.20979300  0.41168500  0.58573200  1
  H  613  1  0.25921800  0.44505700  0.57728600  1
  H  615  1  0.02508500  0.47925100  0.56461300  1
  H  616  1  0.14689100  0.48682300  0.56463800  1
  H  621  1  0.50731400  0.71112100  0.46733200  1
  H  622  1  0.45548100  0.68671200  0.48744700  1
  H  625  1  0.38417200  0.63831500  0.47144000  1
  H  626  1  0.38879400  0.63009900  0.44059500  1
  H  627  1  0.27774000  0.67751700  0.48678400  1
  H  628  1  0.20424700  0.69740900  0.46747300  1
  H  631  1  0.28644300  0.65828100  0.41136500  1
  H  632  1  0.21184900  0.68612800  0.42171000  1
  H  634  1  0.46201600  0.66666667  0.41078500  1
  H  635  1  0.51373000  0.69884800  0.42174900  1
  H  637  1  0.28117200  0.73450800  0.43583400  1
  H  638  1  0.40394300  0.73970700  0.43729100  1
  H  643  1  0.73058800  0.70963900  0.78479800  1
  H  644  1  0.77539800  0.68955800  0.76068300  1
  H  647  1  0.85759000  0.63950300  0.76876400  1
  H  648  1  0.86544600  0.62648300  0.79839800  1
  H  649  1  0.95313000  0.68273300  0.75538500  1
  H  650  1  0.03291500  0.69981700  0.77483600  1
  H  653  1  0.97926800  0.65018700  0.82756500  1
  H  654  1  0.04651800  0.68069300  0.81924200  1
  H  656  1  0.80275800  0.65626200  0.83367600  1
  H  657  1  0.74600400  0.68972700  0.82814200  1
  H  659  1  0.96742400  0.72951800  0.81293700  1
  H  660  1  0.84437600  0.73363300  0.81523300  1
  H  665  1  0.51128500  0.53701100  0.78567700  1
  H  666  1  0.46835700  0.55674400  0.76114100  1
  H  669  1  0.39361800  0.60750500  0.76757800  1
  H  670  1  0.38516200  0.62218100  0.79664500  1
  H  671  1  0.28882400  0.56468400  0.75584300  1
  H  672  1  0.20881100  0.54946600  0.77656100  1
  H  675  1  0.26933400  0.60014000  0.82704600  1
  H  676  1  0.19749800  0.57046700  0.81894700  1
  H  678  1  0.44514500  0.59201900  0.83378500  1
  H  679  1  0.49940700  0.55836100  0.82837400  1
  H  681  1  0.27208600  0.52006900  0.81402300  1
  H  682  1  0.39464900  0.51480000  0.81655600  1
  H  687  1  0.73773800  0.53931100  0.46809800  1
  H  688  1  0.78671200  0.56280500  0.48938900  1
  H  691  1  0.85752600  0.61207000  0.47620400  1
  H  692  1  0.85888200  0.62205500  0.44575300  1
  H  693  1  0.96573000  0.57168700  0.49061500  1
  H  694  1  0.04117200  0.55333800  0.47050000  1
  H  697  1  0.96525600  0.59514500  0.41613300  1
  H  698  1  0.03994600  0.56708100  0.42642600  1
  H  700  1  0.78744600  0.58607800  0.41317900  1
  H  701  1  0.73680000  0.55352700  0.42317100  1
  H  703  1  0.96794000  0.51765900  0.43743600  1
  H  704  1  0.84517400  0.51236700  0.43781000  1
  H  711  1  0.93415600  0.31795400  0.10321100  1
  H  712  1  0.19222300  0.27200100  0.10080100  1
  H  719  1  0.81074800  0.29727600  0.64549200  1
  H  720  1  0.53260500  0.26482700  0.64778700  1
  H  727  1  0.94247800  0.43553000  0.64640700  1
  H  728  1  0.20125200  0.48085300  0.64830200  1
  H  735  1  0.80042000  0.42240000  0.10316400  1
  H  736  1  0.55762800  0.47559600  0.10310500  1
  H  743  1  0.06294900  0.68159000  0.89442100  1
  H  744  1  0.80371000  0.72695200  0.89646100  1
  H  751  1  0.18861000  0.70320900  0.35258200  1
  H  752  1  0.46823700  0.73431900  0.34985400  1
  H  759  1  0.05530000  0.55814800  0.35374000  1
  H  760  1  0.78951400  0.51691200  0.35217900  1
  H  767  1  0.19831500  0.57562400  0.89640900  1
  H  768  1  0.44309100  0.52332900  0.89712200  1
  H  775  1  0.43340800  0.81558700  0.10395800  1
  H  776  1  0.69215300  0.77015500  0.10040000  1
  H  783  1  0.31127100  0.80344000  0.64555100  1
  H  784  1  0.03915600  0.76627400  0.64773500  1
  H  791  1  0.44488600  0.93056400  0.64589700  1
  H  792  1  0.69895100  0.97838600  0.64751100  1
  H  799  1  0.29890400  0.92275200  0.10279500  1
  H  800  1  0.05313900  0.97460000  0.10356900  1
  H  807  1  0.55863100  0.18069200  0.89369900  1
  H  808  1  0.30038000  0.22648900  0.89664700  1
  H  815  1  0.68729600  0.19805900  0.35186400  1
  H  816  1  0.96278600  0.23268400  0.34915000  1
  H  823  1  0.55342100  0.06336200  0.35425300  1
  H  824  1  0.29325000  0.01881400  0.35309000  1
  H  831  1  0.69845600  0.07684000  0.89621400  1
  H  832  1  0.94396000  0.02488900  0.89606900  1
  H  839  1  0.83085800  0.32046800  0.02718500  1
  H  840  1  0.00412400  0.39344500  0.01503800  1
  H  847  1  0.91038200  0.31898100  0.71516700  1
  H  848  1  0.73862800  0.39203400  0.72735000  1
  H  855  1  0.16933900  0.68043700  0.96976000  1
  H  856  1  0.99606200  0.60808400  0.98424500  1
  H  863  1  0.08869400  0.67779100  0.28387700  1
  H  864  1  0.26128100  0.60449600  0.27375000  1
  H  871  1  0.32598700  0.81952600  0.02850100  1
  H  872  1  0.49918200  0.89230200  0.01547100  1
  H  879  1  0.41141100  0.81889500  0.71774600  1
  H  880  1  0.23854900  0.89192900  0.72919700  1
  H  887  1  0.66945200  0.18024600  0.96915700  1
  H  888  1  0.49590700  0.10810800  0.98428500  1
  H  895  1  0.58694800  0.17746100  0.28143600  1
  H  896  1  0.76018600  0.10430700  0.27113200  1
  H  903  1  0.88571200  0.84604100  0.57861600  1
  H  904  1  0.95884800  0.86511000  0.50748800  1
  H  911  1  0.85444800  0.84764900  0.16827000  1
  H  912  1  0.80396400  0.85911500  0.24185500  1
  H  919  1  0.11142400  0.15396900  0.41880300  1
  H  920  1  0.03885900  0.13697800  0.49033400  1
  H  927  1  0.13448500  0.15301100  0.82797700  1
  H  928  1  0.19583300  0.13553900  0.75571800  1
  H  935  1  0.38841400  0.34755700  0.58066500  1
  H  936  1  0.45824000  0.36542900  0.50911300  1
  H  943  1  0.35125900  0.34955400  0.16825900  1
  H  944  1  0.29982800  0.36159300  0.24174600  1
  H  951  1  0.61095600  0.65253500  0.41752500  1
  H  952  1  0.54038500  0.63562600  0.48919200  1
  H  959  1  0.64304500  0.64949000  0.82963300  1
  H  960  1  0.69817600  0.63428700  0.75670200  1
  H  967  1  0.37258300  0.32990800  0.06740700  1
  H  968  1  0.21943000  0.39945100  0.03617400  1
  H  975  1  0.36777700  0.32754200  0.67425000  1
  H  976  1  0.53221500  0.39992500  0.69580400  1
  H  983  1  0.62640800  0.67004400  0.93119400  1
  H  984  1  0.78011200  0.60125300  0.96337000  1
  H  991  1  0.63371400  0.67149800  0.32356800  1
  H  992  1  0.46679600  0.59811200  0.30598400  1
  H  999  1  0.86920200  0.82881900  0.06722200  1
  H  1000  1  0.71406400  0.89874700  0.03723300  1
  H  1007  1  0.86882800  0.82766800  0.67665000  1
  H  1008  1  0.03061900  0.89921300  0.70134400  1
  H  1015  1  0.12508300  0.17023700  0.93239800  1
  H  1016  1  0.27851000  0.10193900  0.96541600  1
  H  1023  1  0.13110100  0.17034100  0.32169200  1
  H  1024  1  0.96698000  0.09781500  0.30021000  1
  H  1031  1  0.40730500  0.82369600  0.54860100  1
  H  1032  1  0.23075200  0.89492200  0.53027500  1
  H  1039  1  0.34491200  0.82006000  0.20990200  1
  H  1040  1  0.52294100  0.89252800  0.22261700  1
  H  1047  1  0.59060500  0.17673500  0.44788300  1
  H  1048  1  0.76775200  0.10555400  0.46599700  1
  H  1055  1  0.65067800  0.17718100  0.78746300  1
  H  1056  1  0.47324600  0.10453200  0.77487100  1
  H  1063  1  0.90691000  0.32468700  0.55144200  1
  H  1064  1  0.72988200  0.39645400  0.53487800  1
  H  1071  1  0.84120600  0.32199400  0.20927700  1
  H  1072  1  0.01876900  0.39412500  0.22358900  1
  H  1079  1  0.09235600  0.67521000  0.44602500  1
  H  1080  1  0.27021500  0.60328500  0.46156300  1
  H  1087  1  0.15531300  0.67512300  0.78863900  1
  H  1088  1  0.97799800  0.60248200  0.77592200  1
  H  1095  1  0.27345000  0.24790900  0.04030200  1
  H  1096  1  0.14675000  0.28167100  0.97791100  1
  H  1103  1  0.43210100  0.25479900  0.71044500  1
  H  1104  1  0.58486100  0.28653400  0.76965900  1
  H  1111  1  0.29180300  0.49806500  0.71129200  1
  H  1112  1  0.15944300  0.46080100  0.77140400  1
  H  1119  1  0.51749700  0.51218000  0.04083000  1
  H  1120  1  0.56939300  0.46160800  0.97931100  1
  H  1127  1  0.78797600  0.76609100  0.95979600  1
  H  1128  1  0.80288400  0.70789100  0.01799000  1
  H  1135  1  0.56732000  0.74252200  0.28701900  1
  H  1136  1  0.41135000  0.71054000  0.22844900  1
  H  1143  1  0.70102600  0.49998800  0.28860800  1
  H  1144  1  0.83946200  0.53610100  0.22891200  1
  H  1151  1  0.94351600  0.75109600  0.71024100  1
  H  1152  1  0.08421100  0.78552300  0.77032700  1
  H  1159  1  0.78330400  0.00002500  0.71046600  1
  H  1160  1  0.65615200  0.96255100  0.77119000  1
  H  1167  1  0.00653600  0.01023500  0.04086600  1
  H  1168  1  0.06985500  0.96147700  0.97906400  1
  H  1175  1  0.06088800  0.24391700  0.28660700  1
  H  1176  1  0.90978200  0.21183000  0.22727100  1
  H  1183  1  0.21192400  0.99662800  0.28944400  1
  H  1184  1  0.33947800  0.03471600  0.22906200  1
  H  1191  1  0.24949200  0.73333600  0.53969500  1
  H  1192  1  0.14240300  0.78281200  0.48249200  1
  H  1199  1  0.48772500  0.01274200  0.54178700  1
  H  1200  1  0.60909200  0.96979000  0.48288400  1
  H  1207  1  0.74396400  0.26671600  0.45810000  1
  H  1208  1  0.85432200  0.21735500  0.51498000  1
  H  1215  1  0.99136800  0.51402500  0.54143600  1
  H  1216  1  0.10784300  0.46847400  0.48322300  1
  N  706  1  0.00288600  0.31006800  0.13425100  1
  N  708  1  0.14354000  0.28449800  0.13319600  1
  N  714  1  0.73682800  0.29420000  0.61461300  1
  N  716  1  0.58438200  0.27665700  0.61542800  1
  N  722  1  0.01128800  0.44282300  0.61528500  1
  N  724  1  0.15264600  0.46783200  0.61585600  1
  N  730  1  0.74085200  0.43273900  0.13497500  1
  N  732  1  0.60842100  0.46218600  0.13513200  1
  N  738  1  0.99360400  0.68872900  0.86336100  1
  N  740  1  0.85228200  0.71395800  0.86419000  1
  N  746  1  0.26256400  0.70668700  0.38343400  1
  N  748  1  0.41608000  0.72329900  0.38236900  1
  N  754  1  0.98598200  0.55181400  0.38496200  1
  N  756  1  0.84040800  0.52931600  0.38459000  1
  N  762  1  0.25800300  0.56484300  0.86471900  1
  N  764  1  0.39164800  0.53591900  0.86486300  1
  N  770  1  0.50418500  0.80769400  0.13469500  1
  N  772  1  0.64529100  0.78244100  0.13306200  1
  N  778  1  0.23758900  0.79961900  0.61473500  1
  N  780  1  0.08897600  0.77910600  0.61542600  1
  N  786  1  0.51175300  0.93875600  0.61463900  1
  N  788  1  0.65038100  0.96519100  0.61509100  1
  N  794  1  0.24026800  0.93264600  0.13480100  1
  N  796  1  0.10617700  0.96133100  0.13546300  1
  N  802  1  0.48910900  0.18868000  0.86278100  1
  N  804  1  0.34824900  0.21412700  0.86408600  1
  N  810  1  0.76085600  0.20229900  0.38268000  1
  N  812  1  0.91161800  0.22124000  0.38167600  1
  N  818  1  0.48552300  0.05638700  0.38558700  1
  N  820  1  0.34328100  0.03193200  0.38541700  1
  N  826  1  0.75709400  0.06644100  0.86431700  1
  N  828  1  0.89112600  0.03771700  0.86396800  1
  N  834  1  0.76965800  0.36054700  0.02539700  1
  N  836  1  0.86488800  0.40037400  0.01902900  1
  N  842  1  0.97276800  0.35883000  0.71799100  1
  N  844  1  0.87885000  0.39856600  0.72449400  1
  N  850  1  0.23026500  0.64039500  0.97245000  1
  N  852  1  0.13506100  0.60088900  0.98006200  1
  N  858  1  0.02676600  0.63776000  0.28204400  1
  N  860  1  0.12109200  0.59790600  0.27667800  1
  N  866  1  0.26480100  0.85957300  0.02621800  1
  N  868  1  0.35994100  0.89928700  0.01935500  1
  N  874  1  0.47310000  0.85891700  0.72008500  1
  N  876  1  0.37844800  0.89865300  0.72613300  1
  N  882  1  0.73006600  0.14019400  0.97218200  1
  N  884  1  0.63476600  0.10079600  0.98012000  1
  N  890  1  0.52561800  0.13731400  0.28002500  1
  N  892  1  0.62040700  0.09752500  0.27461700  1
  N  898  1  0.82096200  0.87955400  0.56216300  1
  N  900  1  0.85624800  0.89025100  0.52346200  1
  N  906  1  0.92627800  0.87879400  0.18577800  1
  N  908  1  0.90308400  0.88537300  0.22578900  1
  N  914  1  0.17654800  0.12092000  0.43582900  1
  N  916  1  0.14133000  0.11139700  0.47481500  1
  N  922  1  0.06550700  0.12044300  0.81157600  1
  N  924  1  0.09479100  0.11053200  0.77228000  1
  N  930  1  0.32230900  0.38074500  0.56399200  1
  N  932  1  0.35604500  0.39077100  0.52503000  1
  N  938  1  0.42294600  0.38078200  0.18565600  1
  N  940  1  0.39932200  0.38766300  0.22561300  1
  N  946  1  0.67718700  0.61957200  0.43449900  1
  N  948  1  0.64276500  0.61010500  0.47358600  1
  N  954  1  0.57247900  0.61747000  0.81295100  1
  N  956  1  0.59820700  0.60884200  0.77328400  1
  N  962  1  0.44267500  0.36722400  0.06018600  1
  N  964  1  0.35725200  0.40497400  0.04282400  1
  N  970  1  0.29933500  0.36482700  0.68213100  1
  N  972  1  0.39122400  0.40426800  0.69378300  1
  N  978  1  0.55688700  0.63269800  0.93862300  1
  N  980  1  0.64246000  0.59534500  0.95654700  1
  N  986  1  0.70106300  0.63365700  0.31696700  1
  N  988  1  0.60781600  0.59358000  0.30771700  1
  N  994  1  0.93856000  0.86635400  0.06032500  1
  N  996  1  0.85216800  0.90432500  0.04359900  1
  N  1002  1  0.79985600  0.86490000  0.68454000  1
  N  1004  1  0.89038400  0.90376500  0.69811500  1
  N  1010  1  0.05634900  0.13272700  0.93961800  1
  N  1012  1  0.14154400  0.09564100  0.95805800  1
  N  1018  1  0.19912100  0.13263300  0.31490700  1
  N  1020  1  0.10735000  0.09316100  0.30321000  1
  N  1026  1  0.46878700  0.86204500  0.54199300  1
  N  1028  1  0.37168400  0.90100600  0.53195900  1
  N  1034  1  0.28442600  0.85920000  0.21366200  1
  N  1036  1  0.38233700  0.89898800  0.22034000  1
  N  1042  1  0.52921800  0.13848600  0.45492300  1
  N  1044  1  0.62672500  0.09952900  0.46480800  1
  N  1050  1  0.71123400  0.13800800  0.78432700  1
  N  1052  1  0.61370200  0.09810300  0.77775100  1
  N  1058  1  0.96846800  0.36302100  0.54472800  1
  N  1060  1  0.87098800  0.40222100  0.53557800  1
  N  1066  1  0.78051600  0.36098100  0.21388800  1
  N  1068  1  0.87805200  0.40058000  0.22152000  1
  N  1074  1  0.03109300  0.63682200  0.45260500  1
  N  1076  1  0.12907500  0.59746300  0.46109100  1
  N  1082  1  0.21612600  0.63601700  0.78504000  1
  N  1084  1  0.11865200  0.59613500  0.77832600  1
  N  1090  1  0.31768600  0.23234300  0.00857400  1
  N  1092  1  0.24984600  0.25120600  0.97441700  1
  N  1098  1  0.39510700  0.23984100  0.74319800  1
  N  1100  1  0.47764300  0.25772000  0.77536500  1
  N  1106  1  0.33370900  0.51192200  0.74392500  1
  N  1108  1  0.26144200  0.49156300  0.77666800  1
  N  1114  1  0.45362400  0.52379600  0.01004500  1
  N  1116  1  0.48239700  0.49641100  0.97638800  1
  N  1122  1  0.71267400  0.77555700  0.98949500  1
  N  1124  1  0.72206200  0.74417600  0.02155700  1
  N  1130  1  0.60245700  0.75741100  0.25413300  1
  N  1132  1  0.51821300  0.73944900  0.22228800  1
  N  1138  1  0.66193400  0.48559800  0.25589300  1
  N  1140  1  0.73727400  0.50541900  0.22338300  1
  N  1146  1  0.90324600  0.73655700  0.74288500  1
  N  1148  1  0.97918400  0.75594800  0.77545500  1
  N  1154  1  0.82670000  0.01411900  0.74294200  1
  N  1156  1  0.75731200  0.99356800  0.77597800  1
  N  1162  1  0.94719400  0.02248200  0.00967100  1
  N  1164  1  0.98181000  0.99601600  0.97586500  1
  N  1170  1  0.09726900  0.25922900  0.25392600  1
  N  1172  1  0.01571100  0.24116700  0.22169000  1
  N  1178  1  0.16932000  0.98266200  0.25684100  1
  N  1180  1  0.23873600  0.00362800  0.22402000  1
  N  1186  1  0.30742900  0.72736000  0.50722700  1
  N  1188  1  0.24738700  0.75333900  0.47600200  1
  N  1194  1  0.43309600  0.02078200  0.50926700  1
  N  1196  1  0.50063000  0.99838400  0.47717500  1
  N  1202  1  0.68752100  0.27260000  0.49071700  1
  N  1204  1  0.74923000  0.24669100  0.52178200  1
  N  1210  1  0.93520800  0.52104500  0.50892900  1
  N  1212  1  0.00021700  0.49726400  0.47716700  1
