# generated using pymatgen
data_H12C17N2
_symmetry_space_group_name_H-M   'P 1'
_cell_length_a   34.08050000
_cell_length_b   34.08050000
_cell_length_c   34.08050000
_cell_angle_alpha   90.00000000
_cell_angle_beta   90.00000000
_cell_angle_gamma   90.00000000
_symmetry_Int_Tables_number   1
_chemical_formula_structural   H12C17N2
_chemical_formula_sum   'H576 C816 N96'
_cell_volume   39583.83550716
_cell_formula_units_Z   48
loop_
 _symmetry_equiv_pos_site_id
 _symmetry_equiv_pos_as_xyz
  1  'x, y, z'
loop_
 _atom_site_type_symbol
 _atom_site_label
 _atom_site_symmetry_multiplicity
 _atom_site_fract_x
 _atom_site_fract_y
 _atom_site_fract_z
 _atom_site_occupancy
  H  5  1  0.93276500  0.33363400  0.20265300  1
  H  6  1  0.95765600  0.29758400  0.17580600  1
  H  9  1  0.98342100  0.31423200  0.10580400  1
  H  10  1  0.97322500  0.36112700  0.08635000  1
  H  11  1  0.02975200  0.30295600  0.15998400  1
  H  12  1  0.05700200  0.34141800  0.18010000  1
  H  15  1  0.01065200  0.41848900  0.10999800  1
  H  16  1  0.04785900  0.41252600  0.14411200  1
  H  18  1  0.93897700  0.41471200  0.12899000  1
  H  19  1  0.92546500  0.40189800  0.17697400  1
  H  21  1  0.02812500  0.39578300  0.21853100  1
  H  22  1  0.97837500  0.39686300  0.23061800  1
  H  27  1  0.06221100  0.66318600  0.19748100  1
  H  28  1  0.03782500  0.69783600  0.16840100  1
  H  31  1  0.01068800  0.67636900  0.10012700  1
  H  32  1  0.01896900  0.62773700  0.08445300  1
  H  33  1  0.96500300  0.69354000  0.15417500  1
  H  34  1  0.93697000  0.65707100  0.17712600  1
  H  37  1  0.97738600  0.57378000  0.11284300  1
  H  38  1  0.94239800  0.58368000  0.14898200  1
  H  40  1  0.05161200  0.57772600  0.12906000  1
  H  41  1  0.06552100  0.59152300  0.17694900  1
  H  43  1  0.96616200  0.60653700  0.22001800  1
  H  44  1  0.01602500  0.60272300  0.22954000  1
  H  49  1  0.06506700  0.33283200  0.75145000  1
  H  50  1  0.04008500  0.29809700  0.77991500  1
  H  53  1  0.01475600  0.31815800  0.84965000  1
  H  54  1  0.02546400  0.36580400  0.86669200  1
  H  55  1  0.96847200  0.30459600  0.79627000  1
  H  56  1  0.94088400  0.34182600  0.77437800  1
  H  59  1  0.98822800  0.42201300  0.84108500  1
  H  60  1  0.95072800  0.41505000  0.80749400  1
  H  62  1  0.06001000  0.41693300  0.82155500  1
  H  63  1  0.07280500  0.40214800  0.77390600  1
  H  65  1  0.96963300  0.39480300  0.73396800  1
  H  66  1  0.01915500  0.39555800  0.72125700  1
  H  71  1  0.93361300  0.66239300  0.75517700  1
  H  72  1  0.95734800  0.69713500  0.78465400  1
  H  75  1  0.98525200  0.67529500  0.85221200  1
  H  76  1  0.97867700  0.62624400  0.86728200  1
  H  77  1  0.03004900  0.69457300  0.79850900  1
  H  78  1  0.05932800  0.65979400  0.77453100  1
  H  81  1  0.02121700  0.57383200  0.83761700  1
  H  82  1  0.05567200  0.58502400  0.80137600  1
  H  84  1  0.94668800  0.57608000  0.82159000  1
  H  85  1  0.93256200  0.59076000  0.77396700  1
  H  87  1  0.03159500  0.60853800  0.73140900  1
  H  88  1  0.98191900  0.60365000  0.72134200  1
  H  93  1  0.21901900  0.93438200  0.30563800  1
  H  94  1  0.19157300  0.96134100  0.27161800  1
  H  97  1  0.12411200  0.98721200  0.29045000  1
  H  98  1  0.10386000  0.97521100  0.33667300  1
  H  99  1  0.17712700  0.03384900  0.28104200  1
  H  100  1  0.19818200  0.05929200  0.32036500  1
  H  103  1  0.12840500  0.00787600  0.39581900  1
  H  104  1  0.16201900  0.04556800  0.39309300  1
  H  106  1  0.14763100  0.93696100  0.38868600  1
  H  107  1  0.19543400  0.92435200  0.37395600  1
  H  109  1  0.23685700  0.02713900  0.37150900  1
  H  110  1  0.24862200  0.97755900  0.37129100  1
  H  115  1  0.21759600  0.06445700  0.63592400  1
  H  116  1  0.18611500  0.04162200  0.66923600  1
  H  119  1  0.11806100  0.01571600  0.64368800  1
  H  120  1  0.10733500  0.02096800  0.59343600  1
  H  121  1  0.17093600  0.97044900  0.66790100  1
  H  122  1  0.19630100  0.93986000  0.63554500  1
  H  125  1  0.13852800  0.97634100  0.54480700  1
  H  126  1  0.17289300  0.94114500  0.55914700  1
  H  128  1  0.15743200  0.05077500  0.54598700  1
  H  129  1  0.20469100  0.06298500  0.56412900  1
  H  131  1  0.24183800  0.96329800  0.58449500  1
  H  132  1  0.25455600  0.01249000  0.57966000  1
  H  137  1  0.77319900  0.06209600  0.30533600  1
  H  138  1  0.79943100  0.03456100  0.27080500  1
  H  141  1  0.86749900  0.00844200  0.28782300  1
  H  142  1  0.88921500  0.02132400  0.33320800  1
  H  143  1  0.81392000  0.96190500  0.28112200  1
  H  144  1  0.79417000  0.93752700  0.32176800  1
  H  147  1  0.86653100  0.98972100  0.39377900  1
  H  148  1  0.83265500  0.95212800  0.39263800  1
  H  150  1  0.84767800  0.06055800  0.38589200  1
  H  151  1  0.79952700  0.07337000  0.37261200  1
  H  153  1  0.75701900  0.97102400  0.37326300  1
  H  154  1  0.74593400  0.02078900  0.37236500  1
  H  159  1  0.77331000  0.93328100  0.63460900  1
  H  160  1  0.80321600  0.95583700  0.66954100  1
  H  163  1  0.87185600  0.98252100  0.64770800  1
  H  164  1  0.88512800  0.97793100  0.59797800  1
  H  165  1  0.81754900  0.02736000  0.66989300  1
  H  166  1  0.79368500  0.05801900  0.63646100  1
  H  169  1  0.85597600  0.02307700  0.54842800  1
  H  170  1  0.82085000  0.05793100  0.56172000  1
  H  172  1  0.83736400  0.94852200  0.54760300  1
  H  173  1  0.78942500  0.93604800  0.56363300  1
  H  175  1  0.75067500  0.03494500  0.58320400  1
  H  176  1  0.73859800  0.98566000  0.57738000  1
  H  181  1  0.33339900  0.22099400  0.91019800  1
  H  182  1  0.29872200  0.19216000  0.93480100  1
  H  185  1  0.31898000  0.12257500  0.95978900  1
  H  186  1  0.36677600  0.10573600  0.94958400  1
  H  187  1  0.30468200  0.17559800  0.00626000  1
  H  188  1  0.34148600  0.19759400  0.03429600  1
  H  191  1  0.42255500  0.13157800  0.98706000  1
  H  192  1  0.41539300  0.16484300  0.02473400  1
  H  194  1  0.41802500  0.15164300  0.91551500  1
  H  195  1  0.40289000  0.19925700  0.90295000  1
  H  197  1  0.39453900  0.23833500  0.00638400  1
  H  198  1  0.39565400  0.25152500  0.95700800  1
  H  203  1  0.66385500  0.21537400  0.04090700  1
  H  204  1  0.69753400  0.18512700  0.01668300  1
  H  207  1  0.67362000  0.11771000  0.98956600  1
  H  208  1  0.62430700  0.10405000  0.99694500  1
  H  209  1  0.69369300  0.17103700  0.94429300  1
  H  210  1  0.65906600  0.19559900  0.91535900  1
  H  213  1  0.57218300  0.13454600  0.95490400  1
  H  214  1  0.58366500  0.17040800  0.92013600  1
  H  216  1  0.57586900  0.15089900  0.02945100  1
  H  217  1  0.59164000  0.19832700  0.04305000  1
  H  219  1  0.60914600  0.23975700  0.94342800  1
  H  220  1  0.60485900  0.25031200  0.99300500  1
  H  225  1  0.33319300  0.77134100  0.04189700  1
  H  226  1  0.29730800  0.79820700  0.01675700  1
  H  229  1  0.31431500  0.86821500  0.99067200  1
  H  230  1  0.36120100  0.88749600  0.00122000  1
  H  231  1  0.30323200  0.81394300  0.94463700  1
  H  232  1  0.34166500  0.79346200  0.91760400  1
  H  235  1  0.41877000  0.86362600  0.96406400  1
  H  236  1  0.41286700  0.82916900  0.92708700  1
  H  238  1  0.41427200  0.84509900  0.03606700  1
  H  239  1  0.40139700  0.79715700  0.04967400  1
  H  241  1  0.39597400  0.75527000  0.94705200  1
  H  242  1  0.39683100  0.74334300  0.99680200  1
  H  247  1  0.66215600  0.77477700  0.91281800  1
  H  248  1  0.69774200  0.80328300  0.93654100  1
  H  251  1  0.67809100  0.87163600  0.96429000  1
  H  252  1  0.62964700  0.88839300  0.95712200  1
  H  253  1  0.69501900  0.81744100  0.00942100  1
  H  254  1  0.65895700  0.79478300  0.03819100  1
  H  257  1  0.57571600  0.86063600  0.99931500  1
  H  258  1  0.58541400  0.82416000  0.03399200  1
  H  260  1  0.57813700  0.84452700  0.92501600  1
  H  261  1  0.59115600  0.79642300  0.91096100  1
  H  263  1  0.60679600  0.75317300  0.01004600  1
  H  264  1  0.60202200  0.74349000  0.96029100  1
  H  269  1  0.33506800  0.93562300  0.77452200  1
  H  270  1  0.30033900  0.96492100  0.79854400  1
  H  273  1  0.31971900  0.00969900  0.85224100  1
  H  274  1  0.36879700  0.01623700  0.86724100  1
  H  275  1  0.29779800  0.03762000  0.78471000  1
  H  276  1  0.33251300  0.06135100  0.75519700  1
  H  279  1  0.41891400  0.04821600  0.82147800  1
  H  280  1  0.40416400  0.06234600  0.77387600  1
  H  282  1  0.42113800  0.97367700  0.83749300  1
  H  283  1  0.40987900  0.93923800  0.80125900  1
  H  285  1  0.39118600  0.01299900  0.72126300  1
  H  286  1  0.38628500  0.96332800  0.73134200  1
  H  291  1  0.65303600  0.05398300  0.77432500  1
  H  292  1  0.69024500  0.02640300  0.79627000  1
  H  295  1  0.67660400  0.98013800  0.84966200  1
  H  296  1  0.62893400  0.96945700  0.86665100  1
  H  297  1  0.69674700  0.95476600  0.77996800  1
  H  298  1  0.66203800  0.92977500  0.75147400  1
  H  301  1  0.57785500  0.93490100  0.82147800  1
  H  302  1  0.59268500  0.92207300  0.77385300  1
  H  304  1  0.57277600  0.00670500  0.84096200  1
  H  305  1  0.57979500  0.04417800  0.80735000  1
  H  307  1  0.59935700  0.97568400  0.72118400  1
  H  308  1  0.60011100  0.02521600  0.73385900  1
  H  313  1  0.33780300  0.05791600  0.17706800  1
  H  314  1  0.30134200  0.02987500  0.15411000  1
  H  317  1  0.31852200  0.98420500  0.10005800  1
  H  318  1  0.36715400  0.97590400  0.08440000  1
  H  319  1  0.29704100  0.95706900  0.16834800  1
  H  320  1  0.33168500  0.93267700  0.19742800  1
  H  323  1  0.41714800  0.94325500  0.12901200  1
  H  324  1  0.40334200  0.92935800  0.17690400  1
  H  326  1  0.42110900  0.01748800  0.11278900  1
  H  327  1  0.41121200  0.05247500  0.14893100  1
  H  329  1  0.39216300  0.97887000  0.22948800  1
  H  330  1  0.38834500  0.02872900  0.21995100  1
  H  335  1  0.65350800  0.93788200  0.18008900  1
  H  336  1  0.69197600  0.96513500  0.15998900  1
  H  339  1  0.68072900  0.01145800  0.10579900  1
  H  340  1  0.63384000  0.02161700  0.08630300  1
  H  341  1  0.69731100  0.03724800  0.17580300  1
  H  342  1  0.66122800  0.06212400  0.20262100  1
  H  345  1  0.58021100  0.05585200  0.12888400  1
  H  346  1  0.59297800  0.06940000  0.17686900  1
  H  348  1  0.57647000  0.98416400  0.10993700  1
  H  349  1  0.58243900  0.94698700  0.14408600  1
  H  351  1  0.59801900  0.01652400  0.23055300  1
  H  352  1  0.59910500  0.96676400  0.21849300  1
  H  357  1  0.93686100  0.20125000  0.63645200  1
  H  358  1  0.96753000  0.17739400  0.66988100  1
  H  361  1  0.01238800  0.12310700  0.64769600  1
  H  362  1  0.01699000  0.10984400  0.59796400  1
  H  363  1  0.03904100  0.19176300  0.66953800  1
  H  364  1  0.06159200  0.22167700  0.63461200  1
  H  367  1  0.04638900  0.15762200  0.54760000  1
  H  368  1  0.05884500  0.20556500  0.56363300  1
  H  370  1  0.97183700  0.13898400  0.54841300  1
  H  371  1  0.93697000  0.17410000  0.56169900  1
  H  373  1  0.00920600  0.25637100  0.57737400  1
  H  374  1  0.95992700  0.24427400  0.58320100  1
  H  379  1  0.05736400  0.20073200  0.32179100  1
  H  380  1  0.03297900  0.18098000  0.28115300  1
  H  383  1  0.98644700  0.12739900  0.28786100  1
  H  384  1  0.97355400  0.10568600  0.33324000  1
  H  385  1  0.96033200  0.19547700  0.27084000  1
  H  386  1  0.93279700  0.22171100  0.30537400  1
  H  389  1  0.93433800  0.14722600  0.38592700  1
  H  390  1  0.92152400  0.19537400  0.37265300  1
  H  392  1  0.00517000  0.12836800  0.39380600  1
  H  393  1  0.04276600  0.16223800  0.39267000  1
  H  395  1  0.97410800  0.24896900  0.37240900  1
  H  396  1  0.02387400  0.23788300  0.37329800  1
  H  401  1  0.05507100  0.79855900  0.63553600  1
  H  402  1  0.02448600  0.82389900  0.66791800  1
  H  405  1  0.97919300  0.87677100  0.64374000  1
  H  406  1  0.97391700  0.88751000  0.59349800  1
  H  407  1  0.95331300  0.80869100  0.66927100  1
  H  408  1  0.93048200  0.77721600  0.63595000  1
  H  411  1  0.94411500  0.83742900  0.54603600  1
  H  412  1  0.93192300  0.79015800  0.56415800  1
  H  414  1  0.01854100  0.85635800  0.54483900  1
  H  415  1  0.05375400  0.82199800  0.55915500  1
  H  417  1  0.98244100  0.74030300  0.57965400  1
  H  418  1  0.03163000  0.75303200  0.58448100  1
  H  423  1  0.93563200  0.79674000  0.32036800  1
  H  424  1  0.96107700  0.81777200  0.28103700  1
  H  427  1  0.00772700  0.87079400  0.29042900  1
  H  428  1  0.01973200  0.89106100  0.33664100  1
  H  429  1  0.03357800  0.80331000  0.27162500  1
  H  430  1  0.06053300  0.77587500  0.30565600  1
  H  433  1  0.05796500  0.84729100  0.38867700  1
  H  434  1  0.07056400  0.79948100  0.37396500  1
  H  436  1  0.98705700  0.86653900  0.39579200  1
  H  437  1  0.94935800  0.83293100  0.39308100  1
  H  439  1  0.01734400  0.74630100  0.37132400  1
  H  440  1  0.96776400  0.75807900  0.37153500  1
  H  445  1  0.20002000  0.33593100  0.03817100  1
  H  446  1  0.17730300  0.29993100  0.00937500  1
  H  449  1  0.12311400  0.31697600  0.96427300  1
  H  450  1  0.10645200  0.36544900  0.95711300  1
  H  451  1  0.19145500  0.29720500  0.93651800  1
  H  452  1  0.22000700  0.33274700  0.91278900  1
  H  455  1  0.15040900  0.41688100  0.92500400  1
  H  456  1  0.19849500  0.40378200  0.91096400  1
  H  458  1  0.13429500  0.41931000  0.99932000  1
  H  459  1  0.17076400  0.40955400  0.03398700  1
  H  461  1  0.25140200  0.39284600  0.96030900  1
  H  462  1  0.24168700  0.38805500  0.01005600  1
  H  467  1  0.20144200  0.65325300  0.91765100  1
  H  468  1  0.18095400  0.69167100  0.94469800  1
  H  471  1  0.12668800  0.68055900  0.99074200  1
  H  472  1  0.10742100  0.63366100  0.00126000  1
  H  473  1  0.19669100  0.69758100  0.01682600  1
  H  474  1  0.22356900  0.66169500  0.04195200  1
  H  477  1  0.14984100  0.58059000  0.03609000  1
  H  478  1  0.19777900  0.59347400  0.04970100  1
  H  480  1  0.13130700  0.57611500  0.96410000  1
  H  481  1  0.16575400  0.58202800  0.92711900  1
  H  483  1  0.25158900  0.59808100  0.99683400  1
  H  484  1  0.23966200  0.59894900  0.94708400  1
  H  489  1  0.79931000  0.33573400  0.91540900  1
  H  490  1  0.82384900  0.30110500  0.94435800  1
  H  493  1  0.87717300  0.32116900  0.98963600  1
  H  494  1  0.89084900  0.37047900  0.99701300  1
  H  495  1  0.80973600  0.29728700  0.01674100  1
  H  496  1  0.77949300  0.33098100  0.04094600  1
  H  499  1  0.84399600  0.41894600  0.02949400  1
  H  500  1  0.79655800  0.40318400  0.04307200  1
  H  502  1  0.86038000  0.42260500  0.95495600  1
  H  503  1  0.82452400  0.41113800  0.92018000  1
  H  505  1  0.74458400  0.38998200  0.99301000  1
  H  506  1  0.75516500  0.38568400  0.94344000  1
  H  511  1  0.79728300  0.65333800  0.03431400  1
  H  512  1  0.81925100  0.69018000  0.00630300  1
  H  515  1  0.87230500  0.67594100  0.95984200  1
  H  516  1  0.88919500  0.62816000  0.94964300  1
  H  517  1  0.80270500  0.69613100  0.93482200  1
  H  518  1  0.77391500  0.66141900  0.91021200  1
  H  521  1  0.84336800  0.57686900  0.91556200  1
  H  522  1  0.79574500  0.59194800  0.90296500  1
  H  524  1  0.86338500  0.57235100  0.98712400  1
  H  525  1  0.83007900  0.57950100  0.02477300  1
  H  527  1  0.74343400  0.59915200  0.95697800  1
  H  528  1  0.75658200  0.60026100  0.00636900  1
  H  539  1  0.06069000  0.52583400  0.17783200  1
  H  540  1  0.05414000  0.45905400  0.18312600  1
  H  545  1  0.85848200  0.44068600  0.23616500  1
  H  546  1  0.80928700  0.48034800  0.26903200  1
  H  547  1  0.82027000  0.55033200  0.27731900  1
  H  548  1  0.87983400  0.58013800  0.25206100  1
  H  559  1  0.93754800  0.52585500  0.77041100  1
  H  560  1  0.94457500  0.45907200  0.76508800  1
  H  565  1  0.14015900  0.44189500  0.71359000  1
  H  566  1  0.18879700  0.48173000  0.68025100  1
  H  567  1  0.17735900  0.55163200  0.67190900  1
  H  568  1  0.11787600  0.58116200  0.69760400  1
  H  579  1  0.21217600  0.05767500  0.49952300  1
  H  580  1  0.20999800  0.05010000  0.43266100  1
  H  585  1  0.23020700  0.84660100  0.41538400  1
  H  586  1  0.25919500  0.79368800  0.45323000  1
  H  587  1  0.27748900  0.80461800  0.52129200  1
  H  588  1  0.26648200  0.86822900  0.55129800  1
  H  599  1  0.78295800  0.94147100  0.49978400  1
  H  600  1  0.78550200  0.94847200  0.43311000  1
  H  605  1  0.76608000  0.15152900  0.41357100  1
  H  606  1  0.73681100  0.20468700  0.45080900  1
  H  607  1  0.72008900  0.19504600  0.51944400  1
  H  608  1  0.73197300  0.13204600  0.55037600  1
  H  619  1  0.52613900  0.20186300  0.03846200  1
  H  620  1  0.45926500  0.20736100  0.03148800  1
  H  625  1  0.44237600  0.26029600  0.83603800  1
  H  626  1  0.48238100  0.29347300  0.78743800  1
  H  627  1  0.55231600  0.30147700  0.79890000  1
  H  628  1  0.58173100  0.27558300  0.85835300  1
  H  639  1  0.52625400  0.79546900  0.91556200  1
  H  640  1  0.45958500  0.79017900  0.92174400  1
  H  645  1  0.44017800  0.73867700  0.11758000  1
  H  646  1  0.47950000  0.70558800  0.16689000  1
  H  647  1  0.54947500  0.69693800  0.15611700  1
  H  648  1  0.57956900  0.72208400  0.09665400  1
  H  659  1  0.53583400  0.05029400  0.76487100  1
  H  660  1  0.46905400  0.05735600  0.77019400  1
  H  665  1  0.41367300  0.87702900  0.69744000  1
  H  666  1  0.44319200  0.81753800  0.67176200  1
  H  667  1  0.51307900  0.80606500  0.68013400  1
  H  668  1  0.55293200  0.85469100  0.71344900  1
  H  679  1  0.53583400  0.94073700  0.18304500  1
  H  680  1  0.46903400  0.93416500  0.17779600  1
  H  685  1  0.41478300  0.11501200  0.25202400  1
  H  686  1  0.44460600  0.17456200  0.27731500  1
  H  687  1  0.51459300  0.18554100  0.26900400  1
  H  688  1  0.55424100  0.13634000  0.23612400  1
  H  699  1  0.04639900  0.20940100  0.43311600  1
  H  700  1  0.05342700  0.21197500  0.49977500  1
  H  705  1  0.86286300  0.26307500  0.55039700  1
  H  706  1  0.79988200  0.27501200  0.51945200  1
  H  707  1  0.79024100  0.25830600  0.45081500  1
  H  708  1  0.84339100  0.22902900  0.41357400  1
  H  719  1  0.94481900  0.78492700  0.43265800  1
  H  720  1  0.93721000  0.78268500  0.49954100  1
  H  725  1  0.12664000  0.72839900  0.55130300  1
  H  726  1  0.19023400  0.71732200  0.52128000  1
  H  727  1  0.20115700  0.73558200  0.45320300  1
  H  728  1  0.14824900  0.76458100  0.41535800  1
  H  739  1  0.20481300  0.53536200  0.92177900  1
  H  740  1  0.19953000  0.46869000  0.91555900  1
  H  745  1  0.27297000  0.41530200  0.09661100  1
  H  746  1  0.29812600  0.44538400  0.15607000  1
  H  747  1  0.28944600  0.51534400  0.16688400  1
  H  748  1  0.25634800  0.55468400  0.11760400  1
  H  759  1  0.78757300  0.53557600  0.03147400  1
  H  760  1  0.79299000  0.46867000  0.03849800  1
  H  765  1  0.71933500  0.41313900  0.85838500  1
  H  766  1  0.69342300  0.44257900  0.79894400  1
  H  767  1  0.70148900  0.51251000  0.78747400  1
  H  768  1  0.73470200  0.55249200  0.83607600  1
  H  779  1  0.05706300  0.24306700  0.26866200  1
  H  780  1  0.05738000  0.29099900  0.22212900  1
  H  785  1  0.89432700  0.40387600  0.28335800  1
  H  786  1  0.84485000  0.40412300  0.33470500  1
  H  787  1  0.84310400  0.35145900  0.38278200  1
  H  788  1  0.89066800  0.29844300  0.37951300  1
  H  799  1  0.93823100  0.75676700  0.26442500  1
  H  800  1  0.93975400  0.71067000  0.21594700  1
  H  805  1  0.10131900  0.59594500  0.27859000  1
  H  806  1  0.14885300  0.59392300  0.33173800  1
  H  807  1  0.14833700  0.64445300  0.38205700  1
  H  808  1  0.10044800  0.69720800  0.37929900  1
  H  819  1  0.94207200  0.23924800  0.68955500  1
  H  820  1  0.94304900  0.28686500  0.73623000  1
  H  825  1  0.10401300  0.40051300  0.67074400  1
  H  826  1  0.15186500  0.40139100  0.61786600  1
  H  827  1  0.15091000  0.35032100  0.56808400  1
  H  828  1  0.10210900  0.29840800  0.57098900  1
  H  839  1  0.04980600  0.76394700  0.69127800  1
  H  840  1  0.05149600  0.71654500  0.73829000  1
  H  845  1  0.89625400  0.59434900  0.67386000  1
  H  846  1  0.84682100  0.59204500  0.62247300  1
  H  847  1  0.84325900  0.64421600  0.57399400  1
  H  848  1  0.88913900  0.69874300  0.57662900  1
  H  859  1  0.28415300  0.05507300  0.21585800  1
  H  860  1  0.23808600  0.05661400  0.26432800  1
  H  865  1  0.29773000  0.89446400  0.37927500  1
  H  866  1  0.35049100  0.84658100  0.38202800  1
  H  867  1  0.40099500  0.84604700  0.33168200  1
  H  868  1  0.39895200  0.89356700  0.27852600  1
  H  879  1  0.27828600  0.94350400  0.73832800  1
  H  880  1  0.23086800  0.94518000  0.69132800  1
  H  885  1  0.29605200  0.10583700  0.57664300  1
  H  886  1  0.35056400  0.15173500  0.57401100  1
  H  887  1  0.40272600  0.14820100  0.62250200  1
  H  888  1  0.40043400  0.09877000  0.67389000  1
  H  899  1  0.70389500  0.93750400  0.22213100  1
  H  900  1  0.75182600  0.93782600  0.26865700  1
  H  905  1  0.69645700  0.10423600  0.37947800  1
  H  906  1  0.64342400  0.15177500  0.38277000  1
  H  907  1  0.59073700  0.15000600  0.33471600  1
  H  908  1  0.59097700  0.10052400  0.28337500  1
  H  919  1  0.70801800  0.05182300  0.73621600  1
  H  920  1  0.75567000  0.05282000  0.68954400  1
  H  925  1  0.69659200  0.89274800  0.57098600  1
  H  926  1  0.64468200  0.84394300  0.56805800  1
  H  927  1  0.59360000  0.84297200  0.61782800  1
  H  928  1  0.59446300  0.89081100  0.67072100  1
  H  939  1  0.23866400  0.28175900  0.03308100  1
  H  940  1  0.28682600  0.23561500  0.03247800  1
  H  945  1  0.40144700  0.30228700  0.87298000  1
  H  946  1  0.40380000  0.35664700  0.82684800  1
  H  947  1  0.35342800  0.40713300  0.82873800  1
  H  948  1  0.30074400  0.40318400  0.87668900  1
  H  959  1  0.76361500  0.27862000  0.92177600  1
  H  960  1  0.71622800  0.23125400  0.92175900  1
  H  965  1  0.59772000  0.29625400  0.07941900  1
  H  966  1  0.59476500  0.34967500  0.12661900  1
  H  967  1  0.64520800  0.40010300  0.12662000  1
  H  968  1  0.69862200  0.39714200  0.07941400  1
  H  979  1  0.24256400  0.70518900  0.91835500  1
  H  980  1  0.28972300  0.75232500  0.91832600  1
  H  985  1  0.40429600  0.69146000  0.08002100  1
  H  986  1  0.40673100  0.63869400  0.12793600  1
  H  987  1  0.35626200  0.58824800  0.12796700  1
  H  988  1  0.30347000  0.59067200  0.08008000  1
  H  999  1  0.75918200  0.70788600  0.03259000  1
  H  1000  1  0.71302600  0.75604800  0.03321200  1
  H  1005  1  0.59162900  0.69398600  0.87680600  1
  H  1006  1  0.58767600  0.64129600  0.82886100  1
  H  1007  1  0.63820400  0.59096500  0.82691800  1
  H  1008  1  0.69259500  0.59335100  0.87300900  1
  H  1019  1  0.06970400  0.33267400  0.00298800  1
  H  1020  1  0.02170400  0.33305300  0.04985500  1
  H  1025  1  0.13133700  0.39148500  0.21576300  1
  H  1026  1  0.19948900  0.39615000  0.23622100  1
  H  1027  1  0.25175000  0.38219800  0.18979600  1
  H  1028  1  0.23596600  0.36454900  0.12254000  1
  H  1039  1  0.92677300  0.65644900  0.99825000  1
  H  1040  1  0.97322200  0.65814500  0.04654500  1
  H  1045  1  0.85282800  0.62870500  0.21272200  1
  H  1046  1  0.78544000  0.61149900  0.22842500  1
  H  1047  1  0.73920600  0.59705700  0.17612600  1
  H  1048  1  0.76000000  0.60073300  0.10801700  1
  H  1059  1  0.92928800  0.33893900  0.95137700  1
  H  1060  1  0.97714200  0.33928800  0.90458500  1
  H  1065  1  0.86654800  0.39318100  0.73773800  1
  H  1066  1  0.79830700  0.39753500  0.71752200  1
  H  1067  1  0.74624500  0.38435200  0.76439600  1
  H  1068  1  0.76236800  0.36763200  0.83181900  1
  H  1079  1  0.07076200  0.66037500  0.95256800  1
  H  1080  1  0.02396700  0.65992900  0.90463700  1
  H  1085  1  0.14374700  0.62892600  0.73843700  1
  H  1086  1  0.21112600  0.61170200  0.72265700  1
  H  1087  1  0.25774000  0.59853600  0.77495300  1
  H  1088  1  0.23734200  0.60351500  0.84309800  1
  H  1099  1  0.02355600  0.07246500  0.30322900  1
  H  1100  1  0.07054800  0.02500600  0.30423800  1
  H  1105  1  0.23011100  0.13102600  0.38416700  1
  H  1106  1  0.24520600  0.19688200  0.40684000  1
  H  1107  1  0.19478600  0.24725100  0.40679000  1
  H  1108  1  0.12898300  0.23208100  0.38400000  1
  H  1119  1  0.01891600  0.92860400  0.62074200  1
  H  1120  1  0.06625300  0.97596300  0.62071600  1
  H  1125  1  0.23678200  0.85892800  0.61305400  1
  H  1126  1  0.25526200  0.79007900  0.61373500  1
  H  1127  1  0.20485600  0.73966000  0.61372300  1
  H  1128  1  0.13600600  0.75812300  0.61305700  1
  H  1139  1  0.96990300  0.92435500  0.30418900  1
  H  1140  1  0.92243100  0.97133800  0.30316500  1
  H  1145  1  0.76284100  0.86590900  0.38398200  1
  H  1146  1  0.74768800  0.80011100  0.40680700  1
  H  1147  1  0.79807200  0.74970400  0.40688700  1
  H  1148  1  0.86392200  0.76480400  0.38419600  1
  H  1159  1  0.97216600  0.07016600  0.62719700  1
  H  1160  1  0.92479000  0.02276800  0.62720300  1
  H  1165  1  0.75436400  0.13967300  0.61627000  1
  H  1166  1  0.73594300  0.20853300  0.61625600  1
  H  1167  1  0.78634700  0.25895000  0.61622600  1
  H  1168  1  0.85521000  0.24054200  0.61623500  1
  H  1179  1  0.33683200  0.02166400  0.04647500  1
  H  1180  1  0.33855100  0.06810400  0.99818300  1
  H  1185  1  0.39420500  0.23488000  0.10798400  1
  H  1186  1  0.39789900  0.25566300  0.17609600  1
  H  1187  1  0.38347100  0.20942000  0.22838900  1
  H  1188  1  0.36623000  0.14204600  0.21268000  1
  H  1199  1  0.65551000  0.01776200  0.90453200  1
  H  1200  1  0.65584400  0.06560800  0.95132400  1
  H  1205  1  0.62720300  0.23253000  0.83176600  1
  H  1206  1  0.61056600  0.24866300  0.76432300  1
  H  1207  1  0.59743500  0.19660300  0.71742800  1
  H  1208  1  0.60177500  0.12836000  0.73764500  1
  H  1219  1  0.33508300  0.97096600  0.90461100  1
  H  1220  1  0.33459900  0.92417600  0.95253000  1
  H  1225  1  0.39137000  0.75757400  0.84303600  1
  H  1226  1  0.39633500  0.73718100  0.77489200  1
  H  1227  1  0.38319300  0.78380600  0.72260100  1
  H  1228  1  0.36598000  0.85118200  0.73838400  1
  H  1239  1  0.66205000  0.97312500  0.04987200  1
  H  1240  1  0.66245800  0.92510700  0.00300300  1
  H  1245  1  0.63046600  0.75889400  0.12257300  1
  H  1246  1  0.61281100  0.74312600  0.18983400  1
  H  1247  1  0.59881700  0.79539900  0.23623600  1
  H  1248  1  0.60348000  0.86354600  0.21576000  1
  H  1259  1  0.28968000  0.11640200  0.90374500  1
  H  1260  1  0.29249700  0.06600700  0.85785400  1
  H  1265  1  0.41642900  0.14848400  0.71971600  1
  H  1266  1  0.42806300  0.21503000  0.69750400  1
  H  1267  1  0.40956300  0.27013900  0.73874800  1
  H  1268  1  0.38109800  0.25871500  0.80294000  1
  H  1279  1  0.70384800  0.87919200  0.90748900  1
  H  1280  1  0.70632200  0.92457300  0.85661600  1
  H  1285  1  0.61480600  0.82274300  0.71480700  1
  H  1286  1  0.58676100  0.75833700  0.70355200  1
  H  1287  1  0.56940800  0.71675000  0.75878600  1
  H  1288  1  0.58177200  0.73887700  0.82521100  1
  H  1299  1  0.28743600  0.87887800  0.04708900  1
  H  1300  1  0.29060100  0.92855700  0.09354500  1
  H  1305  1  0.41090900  0.84254000  0.23267000  1
  H  1306  1  0.42157500  0.77566600  0.25436400  1
  H  1307  1  0.40292800  0.72114500  0.21241400  1
  H  1308  1  0.37539600  0.73344900  0.14797800  1
  H  1319  1  0.70275100  0.11354300  0.04507300  1
  H  1320  1  0.70741600  0.06820900  0.09578600  1
  H  1325  1  0.61745300  0.16951500  0.23943000  1
  H  1326  1  0.58823400  0.23340600  0.25063900  1
  H  1327  1  0.56796100  0.27367100  0.19542900  1
  H  1328  1  0.57868600  0.25090300  0.12891000  1
  H  1339  1  0.11949000  0.07364100  0.67307100  1
  H  1340  1  0.07133400  0.12227500  0.67397500  1
  H  1345  1  0.14036000  0.24564700  0.52592500  1
  H  1346  1  0.19946000  0.25438700  0.48715200  1
  H  1347  1  0.24965100  0.20379800  0.48638900  1
  H  1348  1  0.24097200  0.14412400  0.52430900  1
  H  1359  1  0.88460000  0.06256600  0.26161000  1
  H  1360  1  0.93236300  0.11036200  0.26157100  1
  H  1365  1  0.83196200  0.26370900  0.34037300  1
  H  1366  1  0.76384100  0.28139500  0.35045800  1
  H  1367  1  0.71345200  0.23099100  0.35041700  1
  H  1368  1  0.73116900  0.16288400  0.34028000  1
  H  1379  1  0.87271900  0.92355400  0.67396900  1
  H  1380  1  0.92128600  0.87532400  0.67313600  1
  H  1385  1  0.85073900  0.75385900  0.52439900  1
  H  1386  1  0.79107400  0.74522700  0.48645100  1
  H  1387  1  0.74053500  0.79546600  0.48716400  1
  H  1388  1  0.74931400  0.85457400  0.52591600  1
  H  1399  1  0.10996400  0.93284700  0.26308400  1
  H  1400  1  0.06206600  0.88489000  0.26300900  1
  H  1405  1  0.16132400  0.73283200  0.34267700  1
  H  1406  1  0.22954900  0.71503600  0.35175800  1
  H  1407  1  0.27993200  0.76544300  0.35173800  1
  H  1408  1  0.26209600  0.83365500  0.34262400  1
  H  1419  1  0.07036100  0.28854500  0.85668300  1
  H  1420  1  0.11567600  0.29112400  0.90754200  1
  H  1425  1  0.25579500  0.41356500  0.82527200  1
  H  1426  1  0.27799100  0.42588000  0.75886200  1
  H  1427  1  0.23657200  0.40826600  0.70358700  1
  H  1428  1  0.17225000  0.37999700  0.71477800  1
  H  1439  1  0.06638500  0.70430300  0.09366600  1
  H  1440  1  0.11611400  0.70750700  0.04717100  1
  H  1445  1  0.26143200  0.61944500  0.14797800  1
  H  1446  1  0.27375700  0.59198700  0.21244100  1
  H  1447  1  0.21924400  0.57339500  0.25443200  1
  H  1448  1  0.15236700  0.58405200  0.23274900  1
  H  1459  1  0.92670000  0.28754600  0.09583800  1
  H  1460  1  0.88141000  0.29211900  0.04514300  1
  H  1465  1  0.74394700  0.41625000  0.12889000  1
  H  1466  1  0.72116600  0.42704500  0.19539400  1
  H  1467  1  0.76140300  0.40680100  0.25063200  1
  H  1468  1  0.82527800  0.37752700  0.23946900  1
  H  1479  1  0.92889800  0.70249300  0.85786300  1
  H  1480  1  0.87847900  0.70528300  0.90380700  1
  H  1485  1  0.73621300  0.61382900  0.80308400  1
  H  1486  1  0.72472800  0.58550800  0.73884200  1
  H  1487  1  0.77980600  0.56713900  0.69749000  1
  H  1488  1  0.84636700  0.57877700  0.71964600  1
  C  1  1  0.99734400  0.34238300  0.20014900  1
  C  2  1  0.02889700  0.33428500  0.16716100  1
  C  3  1  0.95685500  0.32911800  0.18207700  1
  C  4  1  0.94685500  0.35209000  0.14392100  1
  C  7  1  0.98089200  0.34527900  0.11324400  1
  C  8  1  0.02253600  0.35786100  0.12789700  1
  C  13  1  0.01873600  0.40252600  0.13671600  1
  C  14  1  0.98865900  0.41251400  0.17045500  1
  C  17  1  0.94765600  0.39734200  0.15457800  1
  C  20  1  0.99884800  0.38796100  0.20783000  1
  C  23  1  0.99740600  0.65614300  0.19637600  1
  C  24  1  0.96516500  0.66277800  0.16348600  1
  C  25  1  0.03792200  0.66685600  0.17697800  1
  C  26  1  0.04652300  0.64069500  0.14058700  1
  C  29  1  0.01222600  0.64600300  0.11004300  1
  C  30  1  0.97010000  0.63633700  0.12589200  1
  C  35  1  0.97133200  0.59220400  0.13850400  1
  C  36  1  0.00268700  0.58384100  0.17118100  1
  C  39  1  0.04390700  0.59654600  0.15395100  1
  C  42  1  0.99500900  0.61132300  0.20717500  1
  C  45  1  0.00059500  0.34206100  0.75399700  1
  C  46  1  0.96915500  0.33551400  0.78749400  1
  C  47  1  0.04106600  0.32933800  0.77233600  1
  C  48  1  0.05135200  0.35382400  0.80942500  1
  C  51  1  0.01748700  0.34875100  0.84063300  1
  C  52  1  0.97579200  0.36082800  0.82566000  1
  C  57  1  0.97982400  0.40507000  0.81507000  1
  C  58  1  0.00981000  0.41343000  0.78079800  1
  C  61  1  0.05090400  0.39859700  0.79680200  1
  C  64  1  0.99904100  0.38738900  0.74459300  1
  C  67  1  0.99861700  0.65708200  0.75560200  1
  C  68  1  0.03093800  0.66407500  0.78840400  1
  C  69  1  0.95800800  0.66631900  0.77550800  1
  C  70  1  0.95038800  0.63932400  0.81142000  1
  C  73  1  0.98466300  0.64504000  0.84188600  1
  C  74  1  0.02695300  0.63680700  0.82555400  1
  C  79  1  0.02667300  0.59278800  0.81221500  1
  C  80  1  0.99534900  0.58415500  0.77952800  1
  C  83  1  0.95400000  0.59562200  0.79713600  1
  C  86  1  0.00248200  0.61247000  0.74402700  1
  C  89  1  0.21743800  0.99853700  0.31769200  1
  C  90  1  0.18506000  0.03138700  0.31209000  1
  C  91  1  0.19865700  0.95891500  0.30290000  1
  C  92  1  0.16107800  0.94828100  0.32632100  1
  C  95  1  0.13105700  0.98310200  0.32143000  1
  C  96  1  0.14615500  0.02393700  0.33593700  1
  C  101  1  0.15502400  0.01739400  0.38048100  1
  C  102  1  0.18897600  0.98684000  0.38804000  1
  C  105  1  0.17278500  0.94662900  0.37120300  1
  C  108  1  0.22580500  0.99817600  0.36310500  1
  C  111  1  0.21658800  0.99913400  0.63155200  1
  C  112  1  0.18253100  0.96833700  0.63799200  1
  C  113  1  0.19689500  0.04031200  0.63898700  1
  C  114  1  0.16274100  0.04816000  0.60977400  1
  C  117  1  0.13095900  0.01491200  0.61438600  1
  C  118  1  0.14712200  0.97208700  0.60840600  1
  C  123  1  0.16270000  0.97074000  0.56528200  1
  C  124  1  0.19674900  0.00077900  0.55751800  1
  C  127  1  0.18007400  0.04281300  0.56738000  1
  C  130  1  0.23048500  0.99312500  0.58764100  1
  C  133  1  0.77506200  0.99821400  0.31837000  1
  C  134  1  0.80713900  0.96511800  0.31237500  1
  C  135  1  0.79347400  0.03752900  0.30226700  1
  C  136  1  0.83200100  0.04841400  0.32416200  1
  C  139  1  0.86155700  0.01323300  0.31893900  1
  C  140  1  0.84684800  0.97277300  0.33478400  1
  C  145  1  0.83939800  0.98011700  0.37942200  1
  C  146  1  0.80592400  0.01104300  0.38748000  1
  C  149  1  0.82186600  0.05084100  0.36942500  1
  C  152  1  0.76820500  0.99965800  0.36395600  1
  C  155  1  0.77398800  0.99868700  0.63102300  1
  C  156  1  0.80750600  0.02963100  0.63944200  1
  C  157  1  0.79369400  0.95751200  0.63888400  1
  C  158  1  0.82916900  0.95021200  0.61115000  1
  C  161  1  0.86046300  0.98360000  0.61780200  1
  C  162  1  0.84439800  0.02643400  0.61163100  1
  C  167  1  0.83085300  0.02828200  0.56783800  1
  C  168  1  0.79735600  0.99821300  0.55805500  1
  C  171  1  0.81382600  0.95618300  0.56812500  1
  C  174  1  0.76211600  0.00517200  0.58660500  1
  C  177  1  0.34219600  0.21820900  0.97476000  1
  C  178  1  0.33555500  0.18456400  0.00591800  1
  C  179  1  0.32991000  0.19999700  0.93409700  1
  C  180  1  0.35478900  0.16319900  0.92381800  1
  C  183  1  0.34956300  0.13172600  0.95744800  1
  C  184  1  0.36121800  0.14666600  0.99929800  1
  C  189  1  0.40547800  0.15746200  0.99559300  1
  C  190  1  0.41382000  0.19202100  0.96595100  1
  C  193  1  0.39942200  0.17617700  0.92466600  1
  C  196  1  0.38744700  0.22794400  0.97681400  1
  C  199  1  0.65749300  0.21482200  0.97595700  1
  C  200  1  0.66339700  0.18175100  0.94374500  1
  C  201  1  0.66690900  0.19491200  0.01650700  1
  C  202  1  0.63923300  0.15966000  0.02476500  1
  C  205  1  0.64369100  0.12889900  0.99055200  1
  C  206  1  0.63530200  0.14526700  0.94828400  1
  C  211  1  0.59159900  0.15951600  0.94907600  1
  C  212  1  0.58411100  0.19248100  0.98037300  1
  C  215  1  0.59578300  0.17491200  0.02171200  1
  C  218  1  0.61307500  0.22728700  0.97259100  1
  C  221  1  0.34229800  0.77368900  0.97742400  1
  C  222  1  0.33450800  0.80658100  0.94564300  1
  C  223  1  0.32882700  0.79190700  0.01776000  1
  C  224  1  0.35173500  0.83012000  0.02775200  1
  C  227  1  0.34530600  0.86064700  0.99349200  1
  C  228  1  0.35817200  0.84582400  0.95196400  1
  C  233  1  0.40277300  0.83689200  0.95612100  1
  C  234  1  0.41250300  0.80340100  0.98657000  1
  C  237  1  0.39698100  0.81946300  0.02736400  1
  C  240  1  0.38795200  0.76603900  0.97625000  1
  C  243  1  0.65638400  0.77582800  0.97772600  1
  C  244  1  0.66415100  0.80848600  0.00992100  1
  C  245  1  0.66666667  0.79518800  0.93706100  1
  C  246  1  0.64096500  0.83204800  0.92907100  1
  C  249  1  0.64748200  0.86238200  0.96337500  1
  C  250  1  0.63818600  0.84646600  0.00561300  1
  C  255  1  0.59376200  0.83463000  0.00501100  1
  C  256  1  0.58433400  0.80220300  0.97370000  1
  C  259  1  0.59673700  0.81937800  0.93244500  1
  C  262  1  0.61138500  0.76578100  0.98104200  1
  C  265  1  0.33778800  0.99634100  0.75559300  1
  C  266  1  0.32860100  0.03694800  0.77552300  1
  C  267  1  0.33082300  0.96401400  0.78840100  1
  C  268  1  0.35814000  0.96797900  0.82551600  1
  C  271  1  0.34996000  0.01027000  0.84186800  1
  C  272  1  0.35565200  0.04454500  0.81139900  1
  C  277  1  0.39933100  0.04091400  0.79705400  1
  C  278  1  0.41074800  0.99956200  0.77942500  1
  C  281  1  0.40214200  0.96823700  0.81211500  1
  C  284  1  0.38238600  0.99244400  0.74395900  1
  C  287  1  0.65282800  0.99425500  0.75397100  1
  C  288  1  0.66551500  0.95378900  0.77235100  1
  C  289  1  0.65933600  0.02571600  0.78745900  1
  C  290  1  0.63398100  0.01910400  0.82560100  1
  C  293  1  0.64602000  0.97741200  0.84060700  1
  C  294  1  0.64097900  0.94353400  0.80941300  1
  C  299  1  0.59622100  0.94398500  0.79674000  1
  C  300  1  0.58142300  0.98507300  0.78069600  1
  C  303  1  0.58975100  0.01508200  0.81495900  1
  C  306  1  0.60750600  0.99581300  0.74451400  1
  C  309  1  0.33873900  0.99748100  0.19632200  1
  C  310  1  0.32802000  0.95696600  0.17692400  1
  C  311  1  0.33210500  0.02972000  0.16342800  1
  C  312  1  0.35855100  0.02478100  0.12583500  1
  C  315  1  0.34888300  0.98265600  0.10998400  1
  C  316  1  0.35417600  0.94836000  0.14053300  1
  C  321  1  0.39832700  0.95096900  0.15390100  1
  C  322  1  0.41104100  0.99218900  0.17112700  1
  C  325  1  0.40268200  0.02354500  0.13845000  1
  C  328  1  0.38355900  0.99987900  0.20711800  1
  C  331  1  0.65251700  0.99754000  0.20012400  1
  C  332  1  0.66577400  0.03803400  0.18205200  1
  C  333  1  0.66064500  0.96598300  0.16714800  1
  C  334  1  0.63709400  0.97232400  0.12786900  1
  C  337  1  0.64967100  0.01396800  0.11321400  1
  C  338  1  0.64282200  0.04801000  0.14387700  1
  C  343  1  0.59756400  0.04719600  0.15449300  1
  C  344  1  0.58239700  0.00619900  0.17038400  1
  C  347  1  0.59242400  0.97610900  0.13666900  1
  C  350  1  0.60693300  0.99603600  0.20778100  1
  C  353  1  0.99618500  0.22097200  0.63101800  1
  C  354  1  0.03736700  0.20128500  0.63888400  1
  C  355  1  0.96525600  0.18744100  0.63943000  1
  C  356  1  0.96846900  0.15055300  0.61161400  1
  C  359  1  0.01130900  0.13450400  0.61779300  1
  C  360  1  0.04468700  0.16581400  0.61115000  1
  C  365  1  0.03871700  0.18115800  0.56812500  1
  C  366  1  0.99668100  0.19761000  0.55805200  1
  C  369  1  0.96662000  0.16410300  0.56782600  1
  C  372  1  0.98970400  0.23284300  0.58660200  1
  C  375  1  0.99668100  0.21984200  0.31840500  1
  C  376  1  0.95736300  0.20143600  0.30230200  1
  C  377  1  0.02977100  0.18776300  0.31240700  1
  C  378  1  0.02211600  0.14805500  0.33481900  1
  C  381  1  0.98165200  0.13334400  0.31897400  1
  C  382  1  0.94647900  0.16291100  0.32420000  1
  C  387  1  0.94405600  0.17304000  0.36946000  1
  C  388  1  0.98385600  0.18897800  0.38751200  1
  C  391  1  0.01477700  0.15550000  0.37945400  1
  C  394  1  0.99524100  0.22670100  0.36399400  1
  C  397  1  0.99580400  0.77825100  0.63155800  1
  C  398  1  0.95461900  0.79792500  0.63901600  1
  C  399  1  0.02659100  0.81231800  0.63800100  1
  C  400  1  0.02282000  0.84774000  0.60843300  1
  C  403  1  0.97999100  0.86388400  0.61443600  1
  C  404  1  0.94675200  0.83208900  0.60982400  1
  C  409  1  0.95209000  0.81478000  0.56741800  1
  C  410  1  0.99412800  0.79812200  0.55753900  1
  C  413  1  0.02415800  0.83217700  0.56530600  1
  C  416  1  0.00180100  0.76437500  0.58764100  1
  C  419  1  0.99637900  0.77747100  0.31770900  1
  C  420  1  0.03600300  0.79623800  0.30290900  1
  C  421  1  0.96353900  0.80985600  0.31209000  1
  C  422  1  0.97099200  0.84877000  0.33591900  1
  C  425  1  0.01183600  0.86385700  0.32141000  1
  C  426  1  0.04664300  0.83382300  0.32631600  1
  C  431  1  0.04829300  0.82213300  0.37120000  1
  C  432  1  0.00807800  0.80595900  0.38804000  1
  C  435  1  0.97753200  0.83991700  0.38046700  1
  C  438  1  0.99673400  0.76912000  0.36312500  1
  C  441  1  0.21897900  0.33851600  0.97770000  1
  C  442  1  0.19959800  0.32830200  0.93703700  1
  C  443  1  0.18631100  0.33078100  0.00989600  1
  C  444  1  0.14837000  0.35681400  0.00559900  1
  C  447  1  0.13243000  0.34756500  0.96336000  1
  C  448  1  0.16277900  0.35403200  0.92905600  1
  C  453  1  0.17552300  0.39823600  0.93243600  1
  C  454  1  0.19271100  0.41060400  0.97369700  1
  C  457  1  0.16027400  0.40122400  0.00500900  1
  C  460  1  0.22909000  0.38349800  0.98104200  1
  C  463  1  0.22122400  0.65261100  0.97747100  1
  C  464  1  0.20300300  0.66606400  0.01781600  1
  C  465  1  0.18832700  0.66039800  0.94569600  1
  C  466  1  0.14909400  0.63671900  0.95201100  1
  C  469  1  0.13426500  0.64956800  0.99354200  1
  C  470  1  0.16480000  0.64313300  0.02779600  1
  C  475  1  0.17547000  0.59789300  0.02739300  1
  C  476  1  0.19153600  0.58239500  0.98659300  1
  C  479  1  0.15803800  0.59211900  0.95615700  1
  C  482  1  0.22889100  0.60696000  0.97628500  1
  C  485  1  0.78006800  0.33733100  0.97599500  1
  C  486  1  0.79995900  0.32791500  0.01655400  1
  C  487  1  0.81314500  0.33140600  0.94379800  1
  C  488  1  0.84963800  0.35949000  0.94834000  1
  C  491  1  0.86599700  0.35110100  0.99061600  1
  C  492  1  0.83522200  0.35557900  0.02481700  1
  C  497  1  0.81998200  0.39903200  0.02174700  1
  C  498  1  0.80242900  0.41070400  0.98040200  1
  C  501  1  0.83540400  0.40319800  0.94912300  1
  C  504  1  0.76761800  0.38175200  0.97261200  1
  C  507  1  0.77669000  0.65263100  0.97477400  1
  C  508  1  0.79490000  0.66493400  0.93411800  1
  C  509  1  0.81032000  0.65929800  0.00594600  1
  C  510  1  0.84824200  0.63367600  0.99934000  1
  C  513  1  0.86318600  0.64534500  0.95749800  1
  C  514  1  0.83173100  0.64009300  0.92385700  1
  C  519  1  0.81880500  0.59544600  0.92469600  1
  C  520  1  0.80294900  0.58103300  0.96596900  1
  C  523  1  0.83747900  0.58941300  0.99563400  1
  C  526  1  0.76699000  0.60737100  0.97681100  1
  C  529  1  0.99998600  0.54064300  0.18269100  1
  C  530  1  0.96459800  0.52226000  0.19515800  1
  C  531  1  0.95981600  0.48067100  0.19311100  1
  C  532  1  0.99129700  0.45623400  0.18058300  1
  C  533  1  0.02865300  0.47467600  0.18290100  1
  C  534  1  0.03284100  0.51542100  0.18113000  1
  C  536  1  0.89615500  0.48734300  0.22272000  1
  C  537  1  0.90176800  0.52815800  0.22640200  1
  C  541  1  0.86195000  0.47014300  0.23789900  1
  C  542  1  0.83369100  0.49322000  0.25724800  1
  C  543  1  0.84007300  0.53373600  0.26207300  1
  C  544  1  0.87425300  0.55119500  0.24680500  1
  C  549  1  0.99832900  0.54110100  0.76737100  1
  C  550  1  0.03391300  0.52297900  0.75518500  1
  C  551  1  0.03890800  0.48138400  0.75728000  1
  C  552  1  0.00730300  0.45680100  0.76920200  1
  C  553  1  0.96992100  0.47494300  0.76569300  1
  C  554  1  0.96553400  0.51567000  0.76771200  1
  C  556  1  0.10239800  0.48837300  0.72752400  1
  C  557  1  0.09650900  0.52917900  0.72375400  1
  C  561  1  0.13650800  0.47132500  0.71193800  1
  C  562  1  0.16443600  0.49450300  0.69223700  1
  C  563  1  0.15780800  0.53497400  0.68741400  1
  C  564  1  0.12370900  0.55228900  0.70300300  1
  C  569  1  0.21033700  0.99690100  0.51496900  1
  C  570  1  0.21766000  0.96017900  0.49658900  1
  C  571  1  0.21106300  0.95520600  0.45547400  1
  C  572  1  0.20112800  0.98785500  0.43129100  1
  C  573  1  0.20911300  0.02487900  0.44876400  1
  C  574  1  0.21168700  0.02953300  0.48938200  1
  C  576  1  0.23047100  0.88767200  0.46155100  1
  C  577  1  0.23979900  0.89363400  0.50148600  1
  C  581  1  0.23705000  0.85087400  0.44410700  1
  C  582  1  0.25382100  0.82023100  0.46613700  1
  C  583  1  0.26441700  0.82657500  0.50556500  1
  C  584  1  0.25743700  0.86327700  0.52321100  1
  C  589  1  0.78568400  0.00231000  0.51496900  1
  C  590  1  0.77921700  0.03903500  0.49625700  1
  C  591  1  0.78572200  0.04356700  0.45506100  1
  C  592  1  0.79497600  0.01061000  0.43103800  1
  C  593  1  0.78697500  0.97382700  0.44896300  1
  C  594  1  0.78425800  0.96954500  0.48956100  1
  C  596  1  0.76679000  0.11127800  0.46046900  1
  C  597  1  0.75785300  0.10588000  0.50057100  1
  C  601  1  0.75978600  0.14773400  0.44249600  1
  C  602  1  0.74287600  0.17853800  0.46418300  1
  C  603  1  0.73313500  0.17292300  0.50393300  1
  C  604  1  0.74065200  0.13660300  0.52212300  1
  C  609  1  0.54128900  0.20548500  0.97770800  1
  C  610  1  0.52323200  0.21810100  0.94224000  1
  C  611  1  0.48165400  0.21619400  0.93723400  1
  C  612  1  0.45708800  0.20390700  0.96871200  1
  C  613  1  0.47516900  0.20716000  0.00615800  1
  C  614  1  0.51590800  0.20503000  0.01053600  1
  C  616  1  0.48875700  0.24618400  0.87385100  1
  C  617  1  0.52957500  0.24975200  0.87974600  1
  C  621  1  0.47180900  0.26182100  0.83971500  1
  C  622  1  0.49509200  0.28139300  0.81178400  1
  C  623  1  0.53557600  0.28606000  0.81845000  1
  C  624  1  0.55279700  0.27042400  0.85257500  1
  C  629  1  0.54091300  0.79138500  0.97641700  1
  C  630  1  0.52229300  0.77926400  0.01177500  1
  C  631  1  0.48064100  0.78131800  0.01628800  1
  C  632  1  0.45630200  0.79335100  0.98450400  1
  C  633  1  0.47503400  0.79077800  0.94733900  1
  C  634  1  0.51579000  0.79260300  0.94342800  1
  C  636  1  0.48701400  0.75195200  0.08008500  1
  C  637  1  0.52784700  0.74812300  0.07463300  1
  C  641  1  0.46962900  0.73680800  0.11421200  1
  C  642  1  0.49250700  0.71730200  0.14252400  1
  C  643  1  0.53302300  0.71230700  0.13628600  1
  C  644  1  0.55067800  0.72758900  0.10221800  1
  C  649  1  0.53805800  0.98756500  0.76909400  1
  C  650  1  0.51348100  0.95597800  0.75711000  1
  C  651  1  0.47189100  0.96098600  0.75500300  1
  C  652  1  0.45378400  0.99657300  0.76720400  1
  C  653  1  0.47922100  0.02936800  0.76745300  1
  C  654  1  0.51994800  0.02495600  0.76547900  1
  C  656  1  0.46566800  0.89840200  0.72357500  1
  C  657  1  0.50647100  0.89249600  0.72735400  1
  C  661  1  0.44255200  0.87120800  0.70282100  1
  C  662  1  0.45984600  0.83706800  0.68729600  1
  C  663  1  0.50031200  0.83042200  0.69213500  1
  C  664  1  0.52349900  0.85835000  0.71182300  1
  C  669  1  0.53866600  0.00356300  0.18045200  1
  C  670  1  0.51423500  0.03503700  0.19301700  1
  C  671  1  0.47264300  0.03025800  0.19508700  1
  C  672  1  0.45424200  0.99487700  0.18262600  1
  C  673  1  0.47945300  0.96201600  0.18105400  1
  C  674  1  0.52019800  0.96621800  0.18268500  1
  C  676  1  0.46675700  0.09307300  0.22636500  1
  C  677  1  0.50757500  0.09868300  0.22267700  1
  C  681  1  0.44374000  0.12056800  0.24681700  1
  C  682  1  0.46120200  0.15474200  0.26208800  1
  C  683  1  0.50172400  0.16110600  0.25728000  1
  C  684  1  0.52478400  0.13288400  0.23785500  1
  C  689  1  0.98425800  0.19987000  0.43108200  1
  C  690  1  0.95132400  0.20928000  0.45507200  1
  C  691  1  0.95585700  0.21579400  0.49626900  1
  C  692  1  0.99257600  0.20926900  0.51496600  1
  C  693  1  0.02534500  0.21078800  0.48956400  1
  C  694  1  0.02104600  0.20795800  0.44897500  1
  C  696  1  0.88903600  0.23721700  0.50057900  1
  C  697  1  0.88363700  0.22829500  0.46047400  1
  C  701  1  0.85832400  0.25443800  0.52212500  1
  C  702  1  0.82199500  0.26194000  0.50394800  1
  C  703  1  0.81638200  0.25221100  0.46419200  1
  C  704  1  0.84717900  0.23529700  0.44250500  1
  C  709  1  0.00704400  0.79384700  0.43129600  1
  C  710  1  0.03968100  0.78386700  0.45548000  1
  C  711  1  0.03470800  0.77725100  0.49659500  1
  C  712  1  0.99798400  0.78456600  0.51498100  1
  C  713  1  0.96535200  0.78320700  0.48940000  1
  C  714  1  0.97001500  0.78594500  0.44879900  1
  C  716  1  0.10123600  0.75505900  0.50148000  1
  C  717  1  0.10719700  0.76437200  0.46154200  1
  C  721  1  0.13158100  0.73738300  0.52319600  1
  C  722  1  0.16827600  0.73038200  0.50554700  1
  C  723  1  0.17460600  0.74093400  0.46610500  1
  C  724  1  0.14398200  0.75775300  0.44409000  1
  C  729  1  0.20156100  0.53859200  0.98454500  1
  C  730  1  0.21368300  0.51426200  0.01629900  1
  C  731  1  0.21574900  0.47261300  0.01176700  1
  C  732  1  0.20359600  0.45401000  0.97641200  1
  C  733  1  0.20242800  0.47914200  0.94342800  1
  C  734  1  0.20422100  0.51989800  0.94736600  1
  C  736  1  0.24693000  0.46703500  0.07459900  1
  C  737  1  0.24309200  0.50786500  0.08007300  1
  C  741  1  0.26748500  0.44420100  0.10216300  1
  C  742  1  0.28271800  0.46183000  0.13626600  1
  C  743  1  0.27770900  0.50234300  0.14252700  1
  C  744  1  0.25819700  0.52523300  0.11422600  1
  C  749  1  0.79112400  0.53775000  0.96872400  1
  C  750  1  0.77882400  0.51318500  0.93724800  1
  C  751  1  0.77687500  0.47160700  0.94225700  1
  C  752  1  0.78945400  0.45353200  0.97773200  1
  C  753  1  0.78989700  0.47890400  0.01056300  1
  C  754  1  0.78797200  0.51964300  0.00616100  1
  C  756  1  0.74520000  0.46528100  0.87977300  1
  C  757  1  0.74879500  0.50609600  0.87387500  1
  C  761  1  0.72446400  0.44208300  0.85262800  1
  C  762  1  0.70883300  0.45931200  0.81850600  1
  C  763  1  0.71350500  0.49979900  0.81185400  1
  C  764  1  0.73316700  0.52305900  0.83974100  1
  C  769  1  0.00314400  0.25836800  0.29675300  1
  C  770  1  0.97562200  0.28986700  0.29808500  1
  C  771  1  0.97624400  0.32031500  0.26953400  1
  C  772  1  0.00376000  0.31954300  0.23805300  1
  C  773  1  0.03510700  0.29251900  0.24199600  1
  C  774  1  0.03490600  0.26306300  0.27046900  1
  C  776  1  0.92046500  0.35059300  0.30093400  1
  C  777  1  0.91943500  0.32012400  0.32886800  1
  C  781  1  0.89316700  0.38146100  0.30312600  1
  C  782  1  0.86467600  0.38166400  0.33306400  1
  C  783  1  0.86369600  0.35115400  0.36096000  1
  C  784  1  0.89124000  0.32040000  0.35905300  1
  C  789  1  0.99065100  0.73989800  0.29432100  1
  C  790  1  0.01845600  0.70864300  0.29514800  1
  C  791  1  0.01920900  0.67957900  0.26522000  1
  C  792  1  0.99228000  0.68094400  0.23319900  1
  C  793  1  0.96130900  0.70845200  0.23652800  1
  C  794  1  0.96036400  0.73673200  0.26615000  1
  C  796  1  0.07435000  0.64853500  0.29727800  1
  C  797  1  0.07391600  0.67764000  0.32661500  1
  C  801  1  0.10170700  0.61768700  0.29920300  1
  C  802  1  0.12898800  0.61635800  0.33023300  1
  C  803  1  0.12864600  0.64562100  0.35944900  1
  C  804  1  0.10091800  0.67622500  0.35784100  1
  C  809  1  0.99264700  0.25712600  0.65704400  1
  C  810  1  0.01981800  0.28886100  0.65510800  1
  C  811  1  0.02074400  0.31843700  0.68461100  1
  C  812  1  0.99429300  0.31759500  0.71704900  1
  C  813  1  0.96407000  0.28914900  0.71511000  1
  C  814  1  0.96344800  0.25990300  0.68643300  1
  C  816  1  0.07577500  0.34875700  0.65189200  1
  C  817  1  0.07498500  0.31937600  0.62281100  1
  C  821  1  0.10381000  0.37896400  0.64999600  1
  C  822  1  0.13140600  0.37948700  0.61924300  1
  C  823  1  0.13083200  0.34988000  0.59037600  1
  C  824  1  0.10253600  0.31979600  0.59203100  1
  C  829  1  0.99996000  0.74341000  0.65918300  1
  C  830  1  0.97362100  0.71094600  0.65826200  1
  C  831  1  0.97471600  0.68125700  0.68761000  1
  C  832  1  0.00194600  0.68309100  0.71939400  1
  C  833  1  0.03031000  0.71333700  0.71744500  1
  C  834  1  0.02925200  0.74241300  0.68861700  1
  C  836  1  0.92047000  0.64846200  0.65579100  1
  C  837  1  0.91882700  0.67834700  0.62728200  1
  C  841  1  0.89431500  0.61659600  0.65389000  1
  C  842  1  0.86590600  0.61515200  0.62390200  1
  C  843  1  0.86386900  0.64539200  0.59576600  1
  C  844  1  0.89046800  0.67699700  0.59727400  1
  C  849  1  0.31394500  0.00260500  0.23315100  1
  C  850  1  0.31532100  0.97568400  0.26517500  1
  C  851  1  0.28626600  0.97643800  0.29510700  1
  C  852  1  0.25501900  0.00425400  0.29430900  1
  C  853  1  0.25821300  0.03457800  0.26617700  1
  C  854  1  0.28640900  0.03355400  0.23647200  1
  C  856  1  0.31727200  0.92097800  0.32657400  1
  C  857  1  0.34636800  0.92053800  0.29722600  1
  C  861  1  0.31870100  0.89398600  0.35780600  1
  C  862  1  0.34929900  0.86624900  0.35940200  1
  C  863  1  0.37855400  0.86590300  0.33017100  1
  C  864  1  0.37720700  0.89317000  0.29913300  1
  C  869  1  0.31174400  0.99303400  0.71940800  1
  C  870  1  0.31356300  0.02026600  0.68762800  1
  C  871  1  0.28387400  0.02135300  0.65828000  1
  C  872  1  0.25141900  0.99500300  0.65919800  1
  C  873  1  0.25243300  0.96569600  0.68861700  1
  C  874  1  0.28144600  0.96472200  0.71751000  1
  C  876  1  0.31645400  0.07616100  0.62730300  1
  C  877  1  0.34633600  0.07453000  0.65581500  1
  C  881  1  0.31779500  0.10452000  0.59729200  1
  C  882  1  0.34938700  0.13113000  0.59578900  1
  C  883  1  0.37962200  0.12911000  0.62393100  1
  C  884  1  0.37817800  0.10071400  0.65392800  1
  C  889  1  0.67535400  0.99113600  0.23803100  1
  C  890  1  0.67456500  0.01864100  0.26951800  1
  C  891  1  0.70503400  0.01928200  0.29804700  1
  C  892  1  0.73652700  0.99175200  0.29673600  1
  C  893  1  0.73181100  0.95996500  0.27048100  1
  C  894  1  0.70239000  0.95980100  0.24197200  1
  C  896  1  0.67476700  0.07546100  0.32883900  1
  C  897  1  0.64428300  0.07441800  0.30092300  1
  C  901  1  0.67449400  0.10365600  0.35902600  1
  C  902  1  0.64373200  0.13118900  0.36094500  1
  C  903  1  0.61320400  0.13018800  0.33306700  1
  C  904  1  0.61340600  0.10169800  0.30312900  1
  C  909  1  0.67736100  0.00053400  0.71706700  1
  C  910  1  0.67652200  0.97409100  0.68462000  1
  C  911  1  0.70611000  0.97502100  0.65512500  1
  C  912  1  0.73783800  0.00220400  0.65706200  1
  C  913  1  0.73504200  0.03141100  0.68644500  1
  C  914  1  0.70584900  0.03071300  0.71516800  1
  C  916  1  0.67560900  0.91986000  0.62280800  1
  C  917  1  0.64622000  0.91905900  0.65188300  1
  C  921  1  0.67519800  0.89231400  0.59202500  1
  C  922  1  0.64511400  0.86401900  0.59035200  1
  C  923  1  0.61550400  0.86343200  0.61921300  1
  C  924  1  0.61601800  0.89102000  0.64997600  1
  C  929  1  0.25600400  0.31383900  0.98203100  1
  C  930  1  0.28794100  0.31614800  0.95509700  1
  C  931  1  0.31796800  0.28713500  0.95458100  1
  C  932  1  0.31733100  0.25480900  0.98109500  1
  C  933  1  0.28887000  0.25661600  0.01130900  1
  C  934  1  0.25926200  0.28491500  0.01165200  1
  C  936  1  0.34897400  0.32041500  0.90032100  1
  C  937  1  0.31958700  0.34945200  0.90116600  1
  C  941  1  0.37985400  0.32297900  0.87308900  1
  C  942  1  0.38124700  0.35460700  0.84652800  1
  C  943  1  0.35204300  0.38386200  0.84762500  1
  C  944  1  0.32127500  0.38141700  0.87511600  1
  C  949  1  0.74434300  0.31078200  0.97200700  1
  C  950  1  0.71237200  0.31199700  0.99899600  1
  C  951  1  0.68285700  0.28249500  0.99899000  1
  C  952  1  0.68405700  0.25053700  0.97198700  1
  C  953  1  0.71356000  0.25230200  0.94282100  1
  C  954  1  0.74259200  0.28124800  0.94286700  1
  C  956  1  0.65083800  0.31482200  0.05341800  1
  C  957  1  0.68004900  0.34402400  0.05342000  1
  C  961  1  0.61945700  0.31685900  0.08015000  1
  C  962  1  0.61762900  0.34800200  0.10726100  1
  C  963  1  0.64687400  0.37723900  0.10726200  1
  C  964  1  0.67803300  0.37539300  0.08016800  1
  C  969  1  0.25910600  0.67564100  0.97119200  1
  C  970  1  0.29100600  0.67435300  0.99821300  1
  C  971  1  0.32056400  0.70391000  0.99819900  1
  C  972  1  0.31929400  0.73579000  0.97115000  1
  C  973  1  0.29182800  0.73205800  0.94019100  1
  C  974  1  0.26282500  0.70310300  0.94023000  1
  C  976  1  0.35187300  0.67229900  0.05322300  1
  C  977  1  0.32263300  0.64307100  0.05324000  1
  C  981  1  0.38277000  0.67069100  0.08052900  1
  C  982  1  0.38422800  0.63996700  0.10812900  1
  C  983  1  0.35498900  0.61073300  0.10814200  1
  C  984  1  0.32424700  0.61218900  0.08056400  1
  C  989  1  0.74008300  0.67748700  0.98111500  1
  C  990  1  0.70774800  0.67683000  0.95461300  1
  C  991  1  0.67872200  0.70684700  0.95514100  1
  C  992  1  0.68102900  0.73878300  0.98207800  1
  C  993  1  0.70990700  0.73549400  0.01173700  1
  C  994  1  0.73827500  0.70595800  0.01131500  1
  C  996  1  0.64539500  0.67518100  0.90124000  1
  C  997  1  0.67445300  0.64581500  0.90036800  1
  C  1001  1  0.61339800  0.67345800  0.87523100  1
  C  1002  1  0.61095600  0.64269000  0.84773700  1
  C  1003  1  0.64022800  0.61350600  0.84661900  1
  C  1004  1  0.67188800  0.61493500  0.87313300  1
  C  1009  1  0.11831600  0.35002100  0.03861300  1
  C  1010  1  0.12674400  0.35750600  0.07891800  1
  C  1011  1  0.09630700  0.36019400  0.10757900  1
  C  1012  1  0.05624600  0.35190500  0.09848900  1
  C  1013  1  0.04922800  0.33994500  0.05930900  1
  C  1014  1  0.07874400  0.33967200  0.03060400  1
  C  1016  1  0.14448100  0.37710400  0.15673600  1
  C  1017  1  0.17472400  0.37057800  0.12935400  1
  C  1021  1  0.15333800  0.38700700  0.19584200  1
  C  1022  1  0.19283200  0.38957800  0.20771500  1
  C  1023  1  0.22314100  0.38146700  0.18079600  1
  C  1024  1  0.21408000  0.37185200  0.14163300  1
  C  1029  1  0.87785700  0.63873500  0.03295600  1
  C  1030  1  0.86849600  0.63110000  0.07308800  1
  C  1031  1  0.89697300  0.63433600  0.10364900  1
  C  1032  1  0.93728400  0.64199800  0.09538600  1
  C  1033  1  0.94559000  0.65124300  0.05559200  1
  C  1034  1  0.91715800  0.65014600  0.02586400  1
  C  1036  1  0.84626400  0.62194800  0.15153000  1
  C  1037  1  0.81901700  0.61508200  0.12123700  1
  C  1041  1  0.83380200  0.62121400  0.19084500  1
  C  1042  1  0.79456900  0.61184800  0.19985000  1
  C  1043  1  0.76775300  0.60349200  0.16951700  1
  C  1044  1  0.77983300  0.60544000  0.13004900  1
  C  1049  1  0.88016000  0.35420000  0.91546200  1
  C  1050  1  0.87168000  0.36124200  0.87508100  1
  C  1051  1  0.90207000  0.36383600  0.84631400  1
  C  1052  1  0.94222800  0.35606900  0.85546000  1
  C  1053  1  0.94950500  0.34545300  0.89496600  1
  C  1054  1  0.92002200  0.34519100  0.92366600  1
  C  1056  1  0.85369600  0.37962200  0.79702500  1
  C  1057  1  0.82355300  0.37344800  0.82461500  1
  C  1061  1  0.84464100  0.38894400  0.75781700  1
  C  1062  1  0.80509100  0.39135900  0.74608600  1
  C  1063  1  0.77489800  0.38371500  0.77326600  1
  C  1064  1  0.78414300  0.37465100  0.81251400  1
  C  1069  1  0.11972500  0.64222300  0.91813800  1
  C  1070  1  0.12889500  0.63390800  0.87808300  1
  C  1071  1  0.10020500  0.63622000  0.84758700  1
  C  1072  1  0.05980600  0.64323900  0.85592000  1
  C  1073  1  0.05165900  0.65333000  0.89554700  1
  C  1074  1  0.08033300  0.65348500  0.92508600  1
  C  1076  1  0.15071700  0.62346500  0.79968900  1
  C  1077  1  0.17818100  0.61733200  0.82995800  1
  C  1081  1  0.16295100  0.62198000  0.76032900  1
  C  1082  1  0.20217000  0.61260500  0.75127400  1
  C  1083  1  0.22920600  0.60499100  0.78160500  1
  C  1084  1  0.21735700  0.60770500  0.82110000  1
  C  1089  1  0.05614900  0.11888900  0.32989500  1
  C  1090  1  0.09513400  0.12667600  0.34312900  1
  C  1091  1  0.12474700  0.09699100  0.34339600  1
  C  1092  1  0.11687100  0.05782200  0.33081700  1
  C  1093  1  0.07897600  0.05166700  0.31481000  1
  C  1094  1  0.05005800  0.08084300  0.31423500  1
  C  1096  1  0.17075600  0.14347100  0.37058700  1
  C  1097  1  0.14147900  0.17270900  0.37054900  1
  C  1101  1  0.20879000  0.15215200  0.38414600  1
  C  1102  1  0.21752700  0.19033400  0.39730900  1
  C  1103  1  0.18827400  0.21955500  0.39728000  1
  C  1104  1  0.15011800  0.21077000  0.38406700  1
  C  1109  1  0.05555700  0.87832300  0.61345900  1
  C  1110  1  0.09630400  0.86897500  0.61083600  1
  C  1111  1  0.12591400  0.89859600  0.61082700  1
  C  1112  1  0.11654800  0.93934100  0.61343300  1
  C  1113  1  0.07611300  0.94785000  0.61826000  1
  C  1114  1  0.04703100  0.91876000  0.61824200  1
  C  1116  1  0.17584100  0.84826200  0.60876400  1
  C  1117  1  0.14665700  0.81906600  0.60876400  1
  C  1121  1  0.21568800  0.83773400  0.61089800  1
  C  1122  1  0.22633600  0.79782000  0.61187200  1
  C  1123  1  0.19711200  0.76858600  0.61186300  1
  C  1124  1  0.15719400  0.77921700  0.61084800  1
  C  1129  1  0.93710200  0.87804400  0.33080200  1
  C  1130  1  0.89793000  0.87015700  0.34337200  1
  C  1131  1  0.86824100  0.89976400  0.34310200  1
  C  1132  1  0.87602000  0.93874800  0.32986300  1
  C  1133  1  0.91405600  0.94483600  0.31417400  1
  C  1134  1  0.94324600  0.91593100  0.31477500  1
  C  1136  1  0.82221500  0.85341700  0.37053400  1
  C  1137  1  0.85146000  0.82414900  0.37058700  1
  C  1141  1  0.78415800  0.84477600  0.38405800  1
  C  1142  1  0.77538200  0.80662500  0.39729500  1
  C  1143  1  0.80461000  0.77738000  0.39733600  1
  C  1144  1  0.84279000  0.78612100  0.38416700  1
  C  1149  1  0.93567600  0.12028100  0.61827100  1
  C  1150  1  0.89493100  0.12960600  0.61554000  1
  C  1151  1  0.86531600  0.09998100  0.61555100  1
  C  1152  1  0.87465500  0.05923900  0.61829200  1
  C  1153  1  0.91498100  0.05085000  0.62423400  1
  C  1154  1  0.94408200  0.07995700  0.62419000  1
  C  1156  1  0.81540500  0.15030200  0.61282500  1
  C  1157  1  0.84459100  0.17950000  0.61281400  1
  C  1161  1  0.77552800  0.16084500  0.61443000  1
  C  1162  1  0.76488900  0.20077000  0.61490000  1
  C  1163  1  0.79411400  0.23000300  0.61487900  1
  C  1164  1  0.83404300  0.21937500  0.61436600  1
  C  1169  1  0.35289100  0.05761000  0.09533900  1
  C  1170  1  0.36056100  0.09791700  0.10360000  1
  C  1171  1  0.36380000  0.12639800  0.07304200  1
  C  1172  1  0.35616500  0.11704300  0.03290900  1
  C  1173  1  0.34475100  0.07774400  0.02581200  1
  C  1174  1  0.34369800  0.04930100  0.05553100  1
  C  1176  1  0.37983000  0.17586800  0.12119600  1
  C  1177  1  0.37297300  0.14861500  0.15148600  1
  C  1181  1  0.38949200  0.21504500  0.13001400  1
  C  1182  1  0.39150500  0.22710600  0.16948400  1
  C  1183  1  0.38312500  0.20029200  0.19981300  1
  C  1184  1  0.37375300  0.16106000  0.19080500  1
  C  1189  1  0.63872300  0.05266900  0.85540100  1
  C  1190  1  0.63097700  0.09282700  0.84625200  1
  C  1191  1  0.63354700  0.12321900  0.87502500  1
  C  1192  1  0.64056600  0.11473600  0.91540900  1
  C  1193  1  0.64958000  0.07487700  0.92361600  1
  C  1194  1  0.64926900  0.04538600  0.89492800  1
  C  1196  1  0.62140500  0.17134900  0.82454800  1
  C  1197  1  0.61525500  0.14120700  0.79694800  1
  C  1201  1  0.62024000  0.21075800  0.81244100  1
  C  1202  1  0.61121700  0.22000900  0.77318700  1
  C  1203  1  0.60363000  0.18981600  0.74599000  1
  C  1204  1  0.60598300  0.15026600  0.75772900  1
  C  1209  1  0.35171100  0.93511800  0.85587600  1
  C  1210  1  0.35870100  0.89471700  0.84754000  1
  C  1211  1  0.36099500  0.86602300  0.87803000  1
  C  1212  1  0.35268000  0.87519200  0.91808500  1
  C  1213  1  0.34139200  0.91457600  0.92503600  1
  C  1214  1  0.34163800  0.94326700  0.89550900  1
  C  1216  1  0.37755900  0.81674000  0.82990300  1
  C  1217  1  0.37144700  0.84421000  0.79963600  1
  C  1221  1  0.38718300  0.77756200  0.82104100  1
  C  1222  1  0.38994400  0.76572800  0.78154600  1
  C  1223  1  0.38231200  0.79276400  0.75121800  1
  C  1224  1  0.37295800  0.83198600  0.76027300  1
  C  1229  1  0.64306300  0.93861300  0.09846900  1
  C  1230  1  0.63478800  0.89855200  0.10757200  1
  C  1231  1  0.63749100  0.86810600  0.07892000  1
  C  1232  1  0.64500500  0.87652500  0.03861700  1
  C  1233  1  0.65539500  0.91608400  0.03061000  1
  C  1234  1  0.65504300  0.94562000  0.05929400  1
  C  1236  1  0.62441900  0.82013700  0.12937000  1
  C  1237  1  0.61786900  0.85038600  0.15673900  1
  C  1241  1  0.62318300  0.78078700  0.14167000  1
  C  1242  1  0.61355300  0.77173100  0.18083000  1
  C  1243  1  0.60545200  0.80205100  0.20774300  1
  C  1244  1  0.60796300  0.84154000  0.19584700  1
  C  1249  1  0.34123600  0.14645700  0.88463500  1
  C  1250  1  0.36096300  0.15227800  0.84857000  1
  C  1251  1  0.36438400  0.12058100  0.82149900  1
  C  1252  1  0.34591900  0.08403300  0.82999100  1
  C  1253  1  0.31299700  0.08763000  0.85533100  1
  C  1254  1  0.31069400  0.11839300  0.88251300  1
  C  1256  1  0.39306600  0.16473800  0.77483000  1
  C  1257  1  0.38463600  0.19678100  0.79990000  1
  C  1261  1  0.40974200  0.17147700  0.73764700  1
  C  1262  1  0.41649000  0.21013200  0.72475200  1
  C  1263  1  0.40566600  0.24206800  0.74860400  1
  C  1264  1  0.38945100  0.23539800  0.78600700  1
  C  1269  1  0.65116400  0.85010800  0.88938800  1
  C  1270  1  0.63284600  0.84124600  0.85283100  1
  C  1271  1  0.63578300  0.86831200  0.82105000  1
  C  1272  1  0.65501100  0.90467600  0.82663100  1
  C  1273  1  0.68555300  0.90309400  0.85475300  1
  C  1274  1  0.68340800  0.87628700  0.88586400  1
  C  1276  1  0.61212700  0.81946800  0.77676700  1
  C  1277  1  0.60436000  0.79425500  0.80886400  1
  C  1281  1  0.60693600  0.80565100  0.73817600  1
  C  1282  1  0.59096800  0.76813100  0.73160000  1
  C  1283  1  0.58085400  0.74406500  0.76360400  1
  C  1284  1  0.58798100  0.75692800  0.80220300  1
  C  1289  1  0.33757100  0.84689800  0.06683500  1
  C  1290  1  0.35663500  0.84051900  0.10321900  1
  C  1291  1  0.36058200  0.87202600  0.13050000  1
  C  1292  1  0.34313800  0.90907400  0.12208200  1
  C  1293  1  0.31053500  0.90644200  0.09622500  1
  C  1294  1  0.30806800  0.87609300  0.06858300  1
  C  1296  1  0.38788700  0.82708000  0.17718200  1
  C  1297  1  0.37919600  0.79534000  0.15180000  1
  C  1301  1  0.40409600  0.81979400  0.21447300  1
  C  1302  1  0.41024300  0.78094500  0.22708800  1
  C  1303  1  0.39929000  0.74934900  0.20284200  1
  C  1304  1  0.38343300  0.75653200  0.16538200  1
  C  1309  1  0.64956500  0.14108800  0.06414700  1
  C  1310  1  0.63190700  0.14970000  0.10107200  1
  C  1311  1  0.63666600  0.12315500  0.13307100  1
  C  1312  1  0.65676300  0.08724800  0.12734300  1
  C  1313  1  0.68627800  0.08925700  0.09821000  1
  C  1314  1  0.68265700  0.11588600  0.06710500  1
  C  1316  1  0.61307500  0.17194300  0.17750700  1
  C  1317  1  0.60347400  0.19644500  0.14535100  1
  C  1321  1  0.60872300  0.18619200  0.21606300  1
  C  1322  1  0.59191600  0.22335600  0.22260900  1
  C  1323  1  0.58007100  0.24664300  0.19061500  1
  C  1324  1  0.58623800  0.23339600  0.15198000  1
  C  1329  1  0.14433600  0.08829400  0.61753800  1
  C  1330  1  0.14788100  0.12193700  0.59308100  1
  C  1331  1  0.11844200  0.15161400  0.59362700  1
  C  1332  1  0.08510300  0.14777600  0.61852100  1
  C  1333  1  0.09099600  0.12297800  0.65139000  1
  C  1334  1  0.11995200  0.09370500  0.65081800  1
  C  1336  1  0.15637600  0.18973900  0.54782600  1
  C  1337  1  0.18552900  0.16028800  0.54728900  1
  C  1341  1  0.16128700  0.22415100  0.52550300  1
  C  1342  1  0.19558200  0.22922300  0.50301500  1
  C  1343  1  0.22469300  0.19987100  0.50256000  1
  C  1344  1  0.21964600  0.16524200  0.52452900  1
  C  1349  1  0.84971200  0.08636400  0.30815600  1
  C  1350  1  0.84060700  0.12465300  0.32186700  1
  C  1351  1  0.87023600  0.15429100  0.32189700  1
  C  1352  1  0.90853400  0.14519500  0.30820300  1
  C  1353  1  0.90887100  0.11514400  0.27941000  1
  C  1354  1  0.87996900  0.08599500  0.27957800  1
  C  1356  1  0.82166600  0.20262800  0.33653500  1
  C  1357  1  0.79224800  0.17320600  0.33650000  1
  C  1361  1  0.81105600  0.24229000  0.34128300  1
  C  1362  1  0.77146700  0.25258800  0.34695500  1
  C  1363  1  0.74226600  0.22337700  0.34693100  1
  C  1364  1  0.75258000  0.18379400  0.34124200  1
  C  1369  1  0.84722600  0.90980200  0.61850600  1
  C  1370  1  0.84334400  0.87644200  0.59364100  1
  C  1371  1  0.87297700  0.84695900  0.59314000  1
  C  1372  1  0.90661800  0.85048900  0.61760200  1
  C  1373  1  0.90119600  0.87483400  0.65091200  1
  C  1374  1  0.87204400  0.90391600  0.65135800  1
  C  1376  1  0.83461500  0.80932800  0.54734800  1
  C  1377  1  0.80519300  0.83850900  0.54786200  1
  C  1381  1  0.82963900  0.77520600  0.52459900  1
  C  1382  1  0.79501800  0.77018500  0.50261300  1
  C  1383  1  0.76569300  0.79932200  0.50304700  1
  C  1384  1  0.77078700  0.83362300  0.52552000  1
  C  1389  1  0.14335000  0.91008600  0.31125400  1
  C  1390  1  0.15248900  0.87203500  0.32554700  1
  C  1391  1  0.12288800  0.84241700  0.32555600  1
  C  1392  1  0.08483900  0.85152500  0.31124000  1
  C  1393  1  0.08512400  0.88068800  0.28155600  1
  C  1394  1  0.11400600  0.90984600  0.28174500  1
  C  1396  1  0.17154800  0.79397000  0.33954600  1
  C  1397  1  0.20096300  0.82339700  0.33952800  1
  C  1401  1  0.18222600  0.75425200  0.34367400  1
  C  1402  1  0.22187800  0.74388600  0.34874800  1
  C  1403  1  0.25107500  0.77309900  0.34873600  1
  C  1404  1  0.24068600  0.81274300  0.34365700  1
  C  1409  1  0.09025000  0.33975100  0.82653400  1
  C  1410  1  0.12657900  0.35905300  0.82099100  1
  C  1411  1  0.15360000  0.36208100  0.85279500  1
  C  1412  1  0.14467400  0.34386800  0.88939100  1
  C  1413  1  0.11875300  0.31141600  0.88580800  1
  C  1414  1  0.09182600  0.30932300  0.85478800  1
  C  1416  1  0.20055300  0.39068400  0.80886700  1
  C  1417  1  0.17542600  0.38276400  0.77674300  1
  C  1421  1  0.23781700  0.40721800  0.80224200  1
  C  1422  1  0.25070000  0.41437200  0.76365700  1
  C  1423  1  0.22674800  0.40406100  0.73162600  1
  C  1424  1  0.18928100  0.38795200  0.73816100  1
  C  1429  1  0.08580700  0.65173300  0.12213300  1
  C  1430  1  0.12284100  0.63424200  0.13052100  1
  C  1431  1  0.15435400  0.63819500  0.10324300  1
  C  1432  1  0.14795600  0.65725300  0.06686000  1
  C  1433  1  0.11886800  0.68685300  0.06864500  1
  C  1434  1  0.08840100  0.68422100  0.09612900  1
  C  1436  1  0.19954300  0.61564200  0.15181700  1
  C  1437  1  0.16781100  0.60698300  0.17722100  1
  C  1441  1  0.23835400  0.61141700  0.16539300  1
  C  1442  1  0.24555100  0.59561300  0.20287300  1
  C  1443  1  0.21396100  0.58473300  0.22715800  1
  C  1444  1  0.17510800  0.59083000  0.21453200  1
  C  1449  1  0.90759200  0.33815200  0.12743100  1
  C  1450  1  0.87167100  0.35821900  0.13313900  1
  C  1451  1  0.84511700  0.36291700  0.10114300  1
  C  1452  1  0.85377300  0.34527900  0.06422000  1
  C  1453  1  0.87886000  0.31210200  0.06724300  1
  C  1454  1  0.90563200  0.30866600  0.09825300  1
  C  1456  1  0.79837700  0.39142300  0.14537000  1
  C  1457  1  0.82286600  0.38184300  0.17754100  1
  C  1461  1  0.76143800  0.40870000  0.15197200  1
  C  1462  1  0.74820500  0.41495300  0.19059700  1
  C  1463  1  0.77145900  0.40308700  0.22260800  1
  C  1464  1  0.80861200  0.38624100  0.21608800  1
  C  1469  1  0.91088400  0.64912500  0.82995000  1
  C  1470  1  0.87437100  0.63056000  0.82153700  1
  C  1471  1  0.84268400  0.63396400  0.84862600  1
  C  1472  1  0.84852000  0.65366700  0.88470200  1
  C  1473  1  0.87650400  0.68427400  0.88257200  1
  C  1474  1  0.90736900  0.68186500  0.85552700  1
  C  1476  1  0.79814500  0.61032800  0.79997100  1
  C  1477  1  0.83016400  0.60196900  0.77484800  1
  C  1481  1  0.75951300  0.60553100  0.78610300  1
  C  1482  1  0.75280900  0.58940100  0.74867100  1
  C  1483  1  0.78472400  0.57869400  0.72474000  1
  C  1484  1  0.82339200  0.58539300  0.73762400  1
  N  535  1  0.92542900  0.46566800  0.20670700  1
  N  538  1  0.93526500  0.54349500  0.21183300  1
  N  555  1  0.07333400  0.46648100  0.74367700  1
  N  558  1  0.06299200  0.54445500  0.73839000  1
  N  575  1  0.21714900  0.91872200  0.44061800  1
  N  578  1  0.23219300  0.92928500  0.51731900  1
  N  595  1  0.77973900  0.07989900  0.43981400  1
  N  598  1  0.76510900  0.07030300  0.51670600  1
  N  615  1  0.46680900  0.22998600  0.90285000  1
  N  618  1  0.54476300  0.23490300  0.91320200  1
  N  635  1  0.46547100  0.76786400  0.05065400  1
  N  638  1  0.54340400  0.76258300  0.04119000  1
  N  655  1  0.45039800  0.93192000  0.73821100  1
  N  658  1  0.52837800  0.92153900  0.74352500  1
  N  675  1  0.45141600  0.05958300  0.21179100  1
  N  678  1  0.52923800  0.06941300  0.20664300  1
  N  695  1  0.92460200  0.22991900  0.51672100  1
  N  698  1  0.91499800  0.21529300  0.43982300  1
  N  715  1  0.06559100  0.76268800  0.51731600  1
  N  718  1  0.07615500  0.77772900  0.44062100  1
  N  735  1  0.23244900  0.45148700  0.04116100  1
  N  738  1  0.22714100  0.52942000  0.05067000  1
  N  755  1  0.76004200  0.45008700  0.91323200  1
  N  758  1  0.76501500  0.52803200  0.90287100  1
  N  775  1  0.94833100  0.34878600  0.27269300  1
  N  778  1  0.94669400  0.29153700  0.32559400  1
  N  795  1  0.04747600  0.65143100  0.26819900  1
  N  798  1  0.04636700  0.70597200  0.32363100  1
  N  815  1  0.04900900  0.34648500  0.68111400  1
  N  818  1  0.04726300  0.29121700  0.62612300  1
  N  835  1  0.94783200  0.65183600  0.68434400  1
  N  838  1  0.94537600  0.70764500  0.63014300  1
  N  855  1  0.28894200  0.94853100  0.32359600  1
  N  858  1  0.34346300  0.94741300  0.26814500  1
  N  875  1  0.28716600  0.04959800  0.63016100  1
  N  878  1  0.34297000  0.04716500  0.68436200  1
  N  895  1  0.70336400  0.04821100  0.32555600  1
  N  898  1  0.64608800  0.04654700  0.27268000  1
  N  915  1  0.70376600  0.94758300  0.62613500  1
  N  918  1  0.64848200  0.94581900  0.68110800  1
  N  935  1  0.34641200  0.29098000  0.92677300  1
  N  938  1  0.29069100  0.34542000  0.92802600  1
  N  955  1  0.65410400  0.28581500  0.02658100  1
  N  958  1  0.70905900  0.34074600  0.02659000  1
  N  975  1  0.34903500  0.70111300  0.02609700  1
  N  978  1  0.29380400  0.64590300  0.02612800  1
  N  995  1  0.64943000  0.70408000  0.92809700  1
  N  998  1  0.70390700  0.64838800  0.92680300  1
  N  1015  1  0.10735700  0.37121200  0.14432700  1
  N  1018  1  0.16422400  0.36230100  0.09195700  1
  N  1035  1  0.88371300  0.63009300  0.14111300  1
  N  1038  1  0.83163100  0.62037200  0.08408400  1
  N  1055  1  0.89091700  0.37413500  0.80938100  1
  N  1058  1  0.83413700  0.36563700  0.86209100  1
  N  1075  1  0.11323700  0.63148100  0.81010200  1
  N  1078  1  0.16576400  0.62324800  0.86709100  1
  N  1095  1  0.16076100  0.10748300  0.35721000  1
  N  1098  1  0.10555700  0.16269000  0.35699300  1
  N  1115  1  0.16378100  0.88601100  0.60926000  1
  N  1118  1  0.10890200  0.83111100  0.60926300  1
  N  1135  1  0.83222600  0.88933800  0.35696700  1
  N  1138  1  0.88744600  0.83414800  0.35720700  1
  N  1155  1  0.82747000  0.11255700  0.61363800  1
  N  1158  1  0.88234300  0.16744800  0.61361200  1
  N  1175  1  0.37453400  0.16326100  0.08404100  1
  N  1178  1  0.36481900  0.11117000  0.14106500  1
  N  1195  1  0.62917500  0.16076300  0.86203200  1
  N  1198  1  0.62072400  0.10398400  0.80930700  1
  N  1215  1  0.37164900  0.82915100  0.86703800  1
  N  1218  1  0.36344200  0.88169200  0.81005300  1
  N  1235  1  0.63270800  0.83063000  0.09197300  1
  N  1238  1  0.62375800  0.88750700  0.14431800  1
  N  1255  1  0.38171100  0.12837300  0.78640300  1
  N  1258  1  0.36997700  0.18912700  0.83613800  1
  N  1275  1  0.62649900  0.85582400  0.78429900  1
  N  1278  1  0.61589800  0.80593000  0.84515500  1
  N  1295  1  0.37741500  0.86375800  0.16572700  1
  N  1298  1  0.36501200  0.80345900  0.11547300  1
  N  1315  1  0.62822100  0.13587700  0.16996500  1
  N  1318  1  0.61414900  0.18457100  0.10887800  1
  N  1335  1  0.12457500  0.18388300  0.57092500  1
  N  1338  1  0.17976200  0.12814000  0.56988900  1
  N  1355  1  0.85940600  0.19191600  0.32955800  1
  N  1358  1  0.80297500  0.13547200  0.32950200  1
  N  1375  1  0.86675900  0.81507300  0.56996200  1
  N  1378  1  0.81107700  0.87032200  0.57093600  1
  N  1395  1  0.13376400  0.80472400  0.33283000  1
  N  1398  1  0.19018800  0.86117600  0.33280900  1
  N  1415  1  0.18885900  0.37917000  0.84516100  1
  N  1418  1  0.13909400  0.36830700  0.78424300  1
  N  1435  1  0.19141500  0.62981800  0.11548900  1
  N  1438  1  0.13113400  0.61746100  0.16576700  1
  N  1455  1  0.81025500  0.38071600  0.10890700  1
  N  1458  1  0.85894300  0.36670500  0.17002300  1
  N  1475  1  0.80582700  0.62494700  0.83621400  1
  N  1478  1  0.86653300  0.61333000  0.78640300  1
