# generated using pymatgen
data_H32C49(N2O)4
_symmetry_space_group_name_H-M   'P 1'
_cell_length_a   30.10200000
_cell_length_b   54.74890000
_cell_length_c   57.50560000
_cell_angle_alpha   90.00000000
_cell_angle_beta   90.00000000
_cell_angle_gamma   90.00040000
_symmetry_Int_Tables_number   1
_chemical_formula_structural   H32C49(N2O)4
_chemical_formula_sum   'H512 C784 N128 O64'
_cell_volume   94772.18388396
_cell_formula_units_Z   16
loop_
 _symmetry_equiv_pos_site_id
 _symmetry_equiv_pos_as_xyz
  1  'x, y, z'
loop_
 _atom_site_type_symbol
 _atom_site_label
 _atom_site_symmetry_multiplicity
 _atom_site_fract_x
 _atom_site_fract_y
 _atom_site_fract_z
 _atom_site_occupancy
  H  26  1  0.20291500  0.08262900  0.09573300  1
  H  27  1  0.19611200  0.07077700  0.13498800  1
  H  28  1  0.33160000  0.10965000  0.10921300  1
  H  29  1  0.32516400  0.09706600  0.14867200  1
  H  30  1  0.32130000  0.09590000  0.19961000  1
  H  31  1  0.31245800  0.13312200  0.21999600  1
  H  32  1  0.18218000  0.13929800  0.19388400  1
  H  33  1  0.19082600  0.10186700  0.17390500  1
  H  34  1  0.18951100  0.06530700  0.20335700  1
  H  35  1  0.12793500  0.03814700  0.20266900  1
  H  36  1  0.18496200  0.00082000  0.14589100  1
  H  37  1  0.24517600  0.02828500  0.14603200  1
  H  38  1  0.32552100  0.04766800  0.14211000  1
  H  39  1  0.28983400  0.05209100  0.21282100  1
  H  40  1  0.35104600  0.02662500  0.22249600  1
  H  41  1  0.38654600  0.02291600  0.15162500  1
  H  44  1  0.21380900  0.17267400  0.21568100  1
  H  45  1  0.29217000  0.11686300  0.07073500  1
  H  47  1  0.10573300  0.99613600  0.15518600  1
  H  49  1  0.41977200  0.00589900  0.21091300  1
  H  75  1  0.31845600  0.08204500  0.92539600  1
  H  76  1  0.32514800  0.07006700  0.88616200  1
  H  77  1  0.19080700  0.11034700  0.91166400  1
  H  78  1  0.19696200  0.09751200  0.87223500  1
  H  79  1  0.20051200  0.09583500  0.82119100  1
  H  80  1  0.20958000  0.13304600  0.80084000  1
  H  81  1  0.33958400  0.13921000  0.82732800  1
  H  82  1  0.33071400  0.10177300  0.84727400  1
  H  83  1  0.33228100  0.06529000  0.81778300  1
  H  84  1  0.39363200  0.03799500  0.81846100  1
  H  85  1  0.33570800  0.00034100  0.87478900  1
  H  86  1  0.27571400  0.02795400  0.87468000  1
  H  87  1  0.19546600  0.04802000  0.87889700  1
  H  88  1  0.23167900  0.05188400  0.80823000  1
  H  89  1  0.17032000  0.02651400  0.79859100  1
  H  90  1  0.13428800  0.02337900  0.86941200  1
  H  93  1  0.30825100  0.17256900  0.80537700  1
  H  94  1  0.23385900  0.11843300  0.95002200  1
  H  96  1  0.41500100  0.99556100  0.86571200  1
  H  98  1  0.10132100  0.00604700  0.81017600  1
  H  124  1  0.70277100  0.85098100  0.92550400  1
  H  125  1  0.69629000  0.86305300  0.88628000  1
  H  126  1  0.82966900  0.82170700  0.91163200  1
  H  127  1  0.82362000  0.83449700  0.87224000  1
  H  128  1  0.82079300  0.83642400  0.82133200  1
  H  129  1  0.81163000  0.79933300  0.80083500  1
  H  130  1  0.68131300  0.79336200  0.82694900  1
  H  131  1  0.69026300  0.83075100  0.84704400  1
  H  132  1  0.69069500  0.86733000  0.81693900  1
  H  133  1  0.63368300  0.89719800  0.81438300  1
  H  134  1  0.68957700  0.93473600  0.87132200  1
  H  135  1  0.74527000  0.90457900  0.87441700  1
  H  136  1  0.82629800  0.88399200  0.87885100  1
  H  137  1  0.78931000  0.88051600  0.80828100  1
  H  138  1  0.85003700  0.90624600  0.79862300  1
  H  139  1  0.88698200  0.90897700  0.86932700  1
  H  142  1  0.71264900  0.76001500  0.80487600  1
  H  143  1  0.79040200  0.81505200  0.95013100  1
  H  145  1  0.63226200  0.95394900  0.84622000  1
  H  147  1  0.91393400  0.93047500  0.81027200  1
  H  173  1  0.81861000  0.85151300  0.09560800  1
  H  174  1  0.82494900  0.86368600  0.13481800  1
  H  175  1  0.69266100  0.82114500  0.10965000  1
  H  176  1  0.69840200  0.83414600  0.14902800  1
  H  177  1  0.70095300  0.83646900  0.20006200  1
  H  178  1  0.71032800  0.79937300  0.22051200  1
  H  179  1  0.84039200  0.79342900  0.19404700  1
  H  180  1  0.83124000  0.83083100  0.17399700  1
  H  181  1  0.83109100  0.86731200  0.20414200  1
  H  182  1  0.88797200  0.89724500  0.20670300  1
  H  183  1  0.83122800  0.93509100  0.15018300  1
  H  184  1  0.77566000  0.90486200  0.14706600  1
  H  185  1  0.69465500  0.88363700  0.14237200  1
  H  186  1  0.73220400  0.88067800  0.21288900  1
  H  187  1  0.67131200  0.90629000  0.22253500  1
  H  188  1  0.63379900  0.90849600  0.15189600  1
  H  191  1  0.80931700  0.76008100  0.21622800  1
  H  192  1  0.73548600  0.81365300  0.07128200  1
  H  194  1  0.88886300  0.95419200  0.17512200  1
  H  196  1  0.60702100  0.93019700  0.21091000  1
  H  222  1  0.70171400  0.58489000  0.59605500  1
  H  223  1  0.69512000  0.57284000  0.63532400  1
  H  224  1  0.83233000  0.60932900  0.60886400  1
  H  225  1  0.82606500  0.59658000  0.64827200  1
  H  226  1  0.82301900  0.59603900  0.69799800  1
  H  227  1  0.81394700  0.63162700  0.72101800  1
  H  228  1  0.68085900  0.63695100  0.69894500  1
  H  229  1  0.68996400  0.60129600  0.67599500  1
  H  230  1  0.69148900  0.56390000  0.70390800  1
  H  231  1  0.62997100  0.53669200  0.70318700  1
  H  232  1  0.68350900  0.50206800  0.64397700  1
  H  233  1  0.74359800  0.52960100  0.64420800  1
  H  234  1  0.82429000  0.54738600  0.64136200  1
  H  235  1  0.79037900  0.55214100  0.71228700  1
  H  236  1  0.85156700  0.52657800  0.72166800  1
  H  237  1  0.88535600  0.52243400  0.65058500  1
  H  240  1  0.70919600  0.65940300  0.73465200  1
  H  241  1  0.79217000  0.61759400  0.57067100  1
  H  243  1  0.60583300  0.49588400  0.65464000  1
  H  245  1  0.91963200  0.50560400  0.70982600  1
  H  271  1  0.81963000  0.58413900  0.42509400  1
  H  272  1  0.82614800  0.57197100  0.38585300  1
  H  273  1  0.69018400  0.61017300  0.41192800  1
  H  274  1  0.69621300  0.59715700  0.37254400  1
  H  275  1  0.69882100  0.59590600  0.32266100  1
  H  276  1  0.70814300  0.63148600  0.29968200  1
  H  277  1  0.84087200  0.63694200  0.32231500  1
  H  278  1  0.83152600  0.60126800  0.34522400  1
  H  279  1  0.83044300  0.56398600  0.31721800  1
  H  280  1  0.89173100  0.53664400  0.31792700  1
  H  281  1  0.83706000  0.50150400  0.37657400  1
  H  282  1  0.77720400  0.52919000  0.37638400  1
  H  283  1  0.69655100  0.54787200  0.37961500  1
  H  284  1  0.73121400  0.55185600  0.30873800  1
  H  285  1  0.66981200  0.52642500  0.29941100  1
  H  286  1  0.63526300  0.52308600  0.37043000  1
  H  289  1  0.81293000  0.65940100  0.28648200  1
  H  290  1  0.73386900  0.61921900  0.45003600  1
  H  292  1  0.91489200  0.49530500  0.36618800  1
  H  294  1  0.60135100  0.50582400  0.31126000  1
  H  320  1  0.20150600  0.34889500  0.42521200  1
  H  321  1  0.19516600  0.36112100  0.38596900  1
  H  322  1  0.33038900  0.32204700  0.41194200  1
  H  323  1  0.32444500  0.33498700  0.37258800  1
  H  324  1  0.32254700  0.33629500  0.32294600  1
  H  325  1  0.31328400  0.30075300  0.29993100  1
  H  326  1  0.18018100  0.29559500  0.32203500  1
  H  327  1  0.18945300  0.33128300  0.34497700  1
  H  328  1  0.19273000  0.36856200  0.31631500  1
  H  329  1  0.13571800  0.39845900  0.31392100  1
  H  330  1  0.18783000  0.43361800  0.37316500  1
  H  331  1  0.24348600  0.40339600  0.37605900  1
  H  332  1  0.32487900  0.38437700  0.37958900  1
  H  333  1  0.28989200  0.38043100  0.30875900  1
  H  334  1  0.35060900  0.40626700  0.29941200  1
  H  335  1  0.38561000  0.40955700  0.37036900  1
  H  338  1  0.20849100  0.27290600  0.28644500  1
  H  339  1  0.29029600  0.31437900  0.45018700  1
  H  341  1  0.13244600  0.45393200  0.34734500  1
  H  343  1  0.41375200  0.43079600  0.31136300  1
  H  369  1  0.31986200  0.34952300  0.59588100  1
  H  370  1  0.32608500  0.36184100  0.63510800  1
  H  371  1  0.19200600  0.32138300  0.60939100  1
  H  372  1  0.19767600  0.33453800  0.64872600  1
  H  373  1  0.19925300  0.33638700  0.69854900  1
  H  374  1  0.20875800  0.30085200  0.72152600  1
  H  375  1  0.34154900  0.29560400  0.69893300  1
  H  376  1  0.33204900  0.33130300  0.67602600  1
  H  377  1  0.32918300  0.36845100  0.70475900  1
  H  378  1  0.38608500  0.39839900  0.70716400  1
  H  379  1  0.33291300  0.43403000  0.64843900  1
  H  380  1  0.27737000  0.40374700  0.64551100  1
  H  381  1  0.19599000  0.38395100  0.64165500  1
  H  382  1  0.23166800  0.38063200  0.71242600  1
  H  383  1  0.17074100  0.40632200  0.72175500  1
  H  384  1  0.13504100  0.40896500  0.65086800  1
  H  387  1  0.31356700  0.27294100  0.73466700  1
  H  388  1  0.23566700  0.31291200  0.57125700  1
  H  390  1  0.38872400  0.45415500  0.67409200  1
  H  392  1  0.10707300  0.43043400  0.70983300  1
  H  406  1  0.23684400  0.99819700  0.02819200  1
  H  407  1  0.26675200  0.99636500  0.00163800  1
  H  408  1  0.20824400  0.00067400  0.00129000  1
  H  410  1  0.28186300  0.18120400  0.99252400  1
  H  411  1  0.31024200  0.17872100  0.01949200  1
  H  412  1  0.25175300  0.18312900  0.01901600  1
  H  428  1  0.73629100  0.93397100  0.99294600  1
  H  429  1  0.76640500  0.93584300  0.01943600  1
  H  430  1  0.70791400  0.93147200  0.01991200  1
  H  432  1  0.78261100  0.75105200  0.02856600  1
  H  433  1  0.81073200  0.75358600  0.00152800  1
  H  434  1  0.75228100  0.74904900  0.00214900  1
  H  450  1  0.73713300  0.49899100  0.52811500  1
  H  451  1  0.76730700  0.49721000  0.50163800  1
  H  452  1  0.70877900  0.50142200  0.50113700  1
  H  454  1  0.78146100  0.68207000  0.49258300  1
  H  455  1  0.80958500  0.67963700  0.51962900  1
  H  456  1  0.75107800  0.68393300  0.51899400  1
  H  472  1  0.23670400  0.43329400  0.49302300  1
  H  473  1  0.26708000  0.43510600  0.51943400  1
  H  474  1  0.20856900  0.43084100  0.52006400  1
  H  476  1  0.28202900  0.25027300  0.52848600  1
  H  477  1  0.30990600  0.25274100  0.50137400  1
  H  478  1  0.25142400  0.24835600  0.50214900  1
  H  494  1  0.98457800  0.01811600  0.11295900  1
  H  495  1  0.92898400  0.01125700  0.12096000  1
  H  496  1  0.96009400  0.99011800  0.10408700  1
  H  498  1  0.04102000  0.91084700  0.25736600  1
  H  499  1  0.06598700  0.93855700  0.26667800  1
  H  500  1  0.09622800  0.91792500  0.24882600  1
  H  516  1  0.53600400  0.01774900  0.90824800  1
  H  517  1  0.59166500  0.01091900  0.90036100  1
  H  518  1  0.56045000  0.98974500  0.91713800  1
  H  520  1  0.48080600  0.91064800  0.76359700  1
  H  521  1  0.45588500  0.93836000  0.75426000  1
  H  522  1  0.42552500  0.91769800  0.77202400  1
  H  538  1  0.03766600  0.91659300  0.91598700  1
  H  539  1  0.09344800  0.92272300  0.90781000  1
  H  540  1  0.06247400  0.94496100  0.92342300  1
  H  542  1  0.98337600  0.01620300  0.76652500  1
  H  543  1  0.95811700  0.98822000  0.75822100  1
  H  544  1  0.92819000  0.00958000  0.77542800  1
  H  560  1  0.48322200  0.91617100  0.10525900  1
  H  561  1  0.42745500  0.92233800  0.11343900  1
  H  562  1  0.45843600  0.94453000  0.09777300  1
  H  564  1  0.53764500  0.01597700  0.25459200  1
  H  565  1  0.56287800  0.98799400  0.26292200  1
  H  566  1  0.59282700  0.00932900  0.24569600  1
  H  582  1  0.48473500  0.51821800  0.61247400  1
  H  583  1  0.42911000  0.51147700  0.62050400  1
  H  584  1  0.46004500  0.49026700  0.60362300  1
  H  586  1  0.54065300  0.41097400  0.75694800  1
  H  587  1  0.56583100  0.43864200  0.76622100  1
  H  588  1  0.59589500  0.41792400  0.74837700  1
  H  604  1  0.03579700  0.51792800  0.40870300  1
  H  605  1  0.09150500  0.51121900  0.40080600  1
  H  606  1  0.06044500  0.48997900  0.41759000  1
  H  608  1  0.98135400  0.41078300  0.26400900  1
  H  609  1  0.95622000  0.43844300  0.25469000  1
  H  610  1  0.92602300  0.41770300  0.27244600  1
  H  626  1  0.53760000  0.41640500  0.41693800  1
  H  627  1  0.59336700  0.42249200  0.40870100  1
  H  628  1  0.56257900  0.44470800  0.42444400  1
  H  630  1  0.48358200  0.51628400  0.26759500  1
  H  631  1  0.45817100  0.48832700  0.25933300  1
  H  632  1  0.42833300  0.50978400  0.27647400  1
  H  648  1  0.98318800  0.41589500  0.60431800  1
  H  649  1  0.92743800  0.42201200  0.61256300  1
  H  650  1  0.95822400  0.44418600  0.59676400  1
  H  652  1  0.03735800  0.51600300  0.75351200  1
  H  653  1  0.06275500  0.48805200  0.76180400  1
  H  654  1  0.09259900  0.50948200  0.74463300  1
  H  670  1  0.18469000  0.27545400  0.20795700  1
  H  671  1  0.15847600  0.24773600  0.19966200  1
  H  672  1  0.21069900  0.25583500  0.18748100  1
  H  674  1  0.34743700  0.15550200  0.31667300  1
  H  675  1  0.32195100  0.17502600  0.33741200  1
  H  676  1  0.37333300  0.18346100  0.32448500  1
  H  692  1  0.33743900  0.27535900  0.81321600  1
  H  693  1  0.36366300  0.24763200  0.82147600  1
  H  694  1  0.31143100  0.25570400  0.83366300  1
  H  696  1  0.17445900  0.15559600  0.70440600  1
  H  697  1  0.19992100  0.17513300  0.68366700  1
  H  698  1  0.14859900  0.18358400  0.69665200  1
  H  714  1  0.68491600  0.65699700  0.81290500  1
  H  715  1  0.65833000  0.68463300  0.82112100  1
  H  716  1  0.71060900  0.67675900  0.83336700  1
  H  718  1  0.84724500  0.77726600  0.70434500  1
  H  719  1  0.82210000  0.75767200  0.68355200  1
  H  720  1  0.87341900  0.74936100  0.69661900  1
  H  736  1  0.83736700  0.65708000  0.20813600  1
  H  737  1  0.86389100  0.68475000  0.19996700  1
  H  738  1  0.81166800  0.67683900  0.18767400  1
  H  740  1  0.67454900  0.77710600  0.31673900  1
  H  741  1  0.69971000  0.75750500  0.33752200  1
  H  742  1  0.64842800  0.74917500  0.32442700  1
  H  770  1  0.20291500  0.42966800  0.09573300  1
  H  771  1  0.19611200  0.41781600  0.13498800  1
  H  772  1  0.33160000  0.45668900  0.10921300  1
  H  773  1  0.32516400  0.44410500  0.14867200  1
  H  774  1  0.32130000  0.44293900  0.19961000  1
  H  775  1  0.31245800  0.48016100  0.21999600  1
  H  776  1  0.18218000  0.48633700  0.19388400  1
  H  777  1  0.19082600  0.44890600  0.17390500  1
  H  778  1  0.18951100  0.41234600  0.20335700  1
  H  779  1  0.12793500  0.38518600  0.20266900  1
  H  780  1  0.18496200  0.34785900  0.14589100  1
  H  781  1  0.24517600  0.37532400  0.14603200  1
  H  782  1  0.32552100  0.39470700  0.14211000  1
  H  783  1  0.28983400  0.39913000  0.21282100  1
  H  784  1  0.35104600  0.37366400  0.22249600  1
  H  785  1  0.38654600  0.36995500  0.15162500  1
  H  788  1  0.21380900  0.51971300  0.21568100  1
  H  789  1  0.29217000  0.46390200  0.07073500  1
  H  791  1  0.10573300  0.34317500  0.15518600  1
  H  793  1  0.41977200  0.35293800  0.21091300  1
  H  819  1  0.31845600  0.42908400  0.92539600  1
  H  820  1  0.32514800  0.41710600  0.88616200  1
  H  821  1  0.19080700  0.45738600  0.91166400  1
  H  822  1  0.19696200  0.44455100  0.87223500  1
  H  823  1  0.20051200  0.44287400  0.82119100  1
  H  824  1  0.20958000  0.48008500  0.80084000  1
  H  825  1  0.33958400  0.48624900  0.82732800  1
  H  826  1  0.33071400  0.44881200  0.84727400  1
  H  827  1  0.33228100  0.41232900  0.81778300  1
  H  828  1  0.39363200  0.38503400  0.81846100  1
  H  829  1  0.33570800  0.34738000  0.87478900  1
  H  830  1  0.27571400  0.37499300  0.87468000  1
  H  831  1  0.19546600  0.39505900  0.87889700  1
  H  832  1  0.23167900  0.39892300  0.80823000  1
  H  833  1  0.17032000  0.37355300  0.79859100  1
  H  834  1  0.13428800  0.37041800  0.86941200  1
  H  837  1  0.30825100  0.51960800  0.80537700  1
  H  838  1  0.23385900  0.46547200  0.95002200  1
  H  840  1  0.41500100  0.34260000  0.86571200  1
  H  842  1  0.10132100  0.35308600  0.81017600  1
  H  868  1  0.70277100  0.19802000  0.92550400  1
  H  869  1  0.69629000  0.21009200  0.88628000  1
  H  870  1  0.82966900  0.16874600  0.91163200  1
  H  871  1  0.82362000  0.18153600  0.87224000  1
  H  872  1  0.82079300  0.18346300  0.82133200  1
  H  873  1  0.81163000  0.14637200  0.80083500  1
  H  874  1  0.68131300  0.14040100  0.82694900  1
  H  875  1  0.69026300  0.17779000  0.84704400  1
  H  876  1  0.69069500  0.21436900  0.81693900  1
  H  877  1  0.63368300  0.24423700  0.81438300  1
  H  878  1  0.68957700  0.28177500  0.87132200  1
  H  879  1  0.74527000  0.25161800  0.87441700  1
  H  880  1  0.82629800  0.23103100  0.87885100  1
  H  881  1  0.78931000  0.22755500  0.80828100  1
  H  882  1  0.85003700  0.25328500  0.79862300  1
  H  883  1  0.88698200  0.25601600  0.86932700  1
  H  886  1  0.71264900  0.10705400  0.80487600  1
  H  887  1  0.79040200  0.16209100  0.95013100  1
  H  889  1  0.63226200  0.30098800  0.84622000  1
  H  891  1  0.91393400  0.27751400  0.81027200  1
  H  917  1  0.81861000  0.19855200  0.09560800  1
  H  918  1  0.82494900  0.21072500  0.13481800  1
  H  919  1  0.69266100  0.16818400  0.10965000  1
  H  920  1  0.69840200  0.18118500  0.14902800  1
  H  921  1  0.70095300  0.18350800  0.20006200  1
  H  922  1  0.71032800  0.14641200  0.22051200  1
  H  923  1  0.84039200  0.14046800  0.19404700  1
  H  924  1  0.83124000  0.17787000  0.17399700  1
  H  925  1  0.83109100  0.21435100  0.20414200  1
  H  926  1  0.88797200  0.24428400  0.20670300  1
  H  927  1  0.83122800  0.28213000  0.15018300  1
  H  928  1  0.77566000  0.25190100  0.14706600  1
  H  929  1  0.69465500  0.23067600  0.14237200  1
  H  930  1  0.73220400  0.22771700  0.21288900  1
  H  931  1  0.67131200  0.25332900  0.22253500  1
  H  932  1  0.63379900  0.25553500  0.15189600  1
  H  935  1  0.80931700  0.10712000  0.21622800  1
  H  936  1  0.73548600  0.16069200  0.07128200  1
  H  938  1  0.88886300  0.30123100  0.17512200  1
  H  940  1  0.60702100  0.27723600  0.21091000  1
  H  966  1  0.70171400  0.93192900  0.59605500  1
  H  967  1  0.69512000  0.91987900  0.63532400  1
  H  968  1  0.83233000  0.95636800  0.60886400  1
  H  969  1  0.82606500  0.94361900  0.64827200  1
  H  970  1  0.82301900  0.94307800  0.69799800  1
  H  971  1  0.81394700  0.97866600  0.72101800  1
  H  972  1  0.68085900  0.98399000  0.69894500  1
  H  973  1  0.68996400  0.94833500  0.67599500  1
  H  974  1  0.69148900  0.91093900  0.70390800  1
  H  975  1  0.62997100  0.88373100  0.70318700  1
  H  976  1  0.68350900  0.84910700  0.64397700  1
  H  977  1  0.74359800  0.87664000  0.64420800  1
  H  978  1  0.82429000  0.89442500  0.64136200  1
  H  979  1  0.79037900  0.89918000  0.71228700  1
  H  980  1  0.85156700  0.87361700  0.72166800  1
  H  981  1  0.88535600  0.86947300  0.65058500  1
  H  984  1  0.70919600  0.00644194  0.73465200  1
  H  985  1  0.79217000  0.96463300  0.57067100  1
  H  987  1  0.60583300  0.84292300  0.65464000  1
  H  989  1  0.91963200  0.85264300  0.70982600  1
  H  1015  1  0.81963000  0.93117800  0.42509400  1
  H  1016  1  0.82614800  0.91901000  0.38585300  1
  H  1017  1  0.69018400  0.95721200  0.41192800  1
  H  1018  1  0.69621300  0.94419600  0.37254400  1
  H  1019  1  0.69882100  0.94294500  0.32266100  1
  H  1020  1  0.70814300  0.97852500  0.29968200  1
  H  1021  1  0.84087200  0.98398100  0.32231500  1
  H  1022  1  0.83152600  0.94830700  0.34522400  1
  H  1023  1  0.83044300  0.91102500  0.31721800  1
  H  1024  1  0.89173100  0.88368300  0.31792700  1
  H  1025  1  0.83706000  0.84854300  0.37657400  1
  H  1026  1  0.77720400  0.87622900  0.37638400  1
  H  1027  1  0.69655100  0.89491100  0.37961500  1
  H  1028  1  0.73121400  0.89889500  0.30873800  1
  H  1029  1  0.66981200  0.87346400  0.29941100  1
  H  1030  1  0.63526300  0.87012500  0.37043000  1
  H  1033  1  0.81293000  0.00643994  0.28648200  1
  H  1034  1  0.73386900  0.96625800  0.45003600  1
  H  1036  1  0.91489200  0.84234400  0.36618800  1
  H  1038  1  0.60135100  0.85286300  0.31126000  1
  H  1064  1  0.20150600  0.69593400  0.42521200  1
  H  1065  1  0.19516600  0.70816000  0.38596900  1
  H  1066  1  0.33038900  0.66908600  0.41194200  1
  H  1067  1  0.32444500  0.68202600  0.37258800  1
  H  1068  1  0.32254700  0.68333400  0.32294600  1
  H  1069  1  0.31328400  0.64779200  0.29993100  1
  H  1070  1  0.18018100  0.64263400  0.32203500  1
  H  1071  1  0.18945300  0.67832200  0.34497700  1
  H  1072  1  0.19273000  0.71560100  0.31631500  1
  H  1073  1  0.13571800  0.74549800  0.31392100  1
  H  1074  1  0.18783000  0.78065700  0.37316500  1
  H  1075  1  0.24348600  0.75043500  0.37605900  1
  H  1076  1  0.32487900  0.73141600  0.37958900  1
  H  1077  1  0.28989200  0.72747000  0.30875900  1
  H  1078  1  0.35060900  0.75330600  0.29941200  1
  H  1079  1  0.38561000  0.75659600  0.37036900  1
  H  1082  1  0.20849100  0.61994500  0.28644500  1
  H  1083  1  0.29029600  0.66141800  0.45018700  1
  H  1085  1  0.13244600  0.80097100  0.34734500  1
  H  1087  1  0.41375200  0.77783500  0.31136300  1
  H  1113  1  0.31986200  0.69656200  0.59588100  1
  H  1114  1  0.32608500  0.70888000  0.63510800  1
  H  1115  1  0.19200600  0.66842200  0.60939100  1
  H  1116  1  0.19767600  0.68157700  0.64872600  1
  H  1117  1  0.19925300  0.68342600  0.69854900  1
  H  1118  1  0.20875800  0.64789100  0.72152600  1
  H  1119  1  0.34154900  0.64264300  0.69893300  1
  H  1120  1  0.33204900  0.67834200  0.67602600  1
  H  1121  1  0.32918300  0.71549000  0.70475900  1
  H  1122  1  0.38608500  0.74543800  0.70716400  1
  H  1123  1  0.33291300  0.78106900  0.64843900  1
  H  1124  1  0.27737000  0.75078600  0.64551100  1
  H  1125  1  0.19599000  0.73099000  0.64165500  1
  H  1126  1  0.23166800  0.72767100  0.71242600  1
  H  1127  1  0.17074100  0.75336100  0.72175500  1
  H  1128  1  0.13504100  0.75600400  0.65086800  1
  H  1131  1  0.31356700  0.61998000  0.73466700  1
  H  1132  1  0.23566700  0.65995100  0.57125700  1
  H  1134  1  0.38872400  0.80119400  0.67409200  1
  H  1136  1  0.10707300  0.77747300  0.70983300  1
  H  1150  1  0.23684400  0.34523600  0.02819200  1
  H  1151  1  0.26675200  0.34340400  0.00163800  1
  H  1152  1  0.20824400  0.34771300  0.00129000  1
  H  1154  1  0.28186300  0.52824300  0.99252400  1
  H  1155  1  0.31024200  0.52576000  0.01949200  1
  H  1156  1  0.25175300  0.53016800  0.01901600  1
  H  1172  1  0.73629100  0.28101000  0.99294600  1
  H  1173  1  0.76640500  0.28288200  0.01943600  1
  H  1174  1  0.70791400  0.27851100  0.01991200  1
  H  1176  1  0.78261100  0.09809090  0.02856600  1
  H  1177  1  0.81073200  0.10062500  0.00152800  1
  H  1178  1  0.75228100  0.09608790  0.00214900  1
  H  1194  1  0.73713300  0.84603000  0.52811500  1
  H  1195  1  0.76730700  0.84424900  0.50163800  1
  H  1196  1  0.70877900  0.84846100  0.50113700  1
  H  1198  1  0.78146100  0.02910890  0.49258300  1
  H  1199  1  0.80958500  0.02667590  0.51962900  1
  H  1200  1  0.75107800  0.03097190  0.51899400  1
  H  1216  1  0.23670400  0.78033300  0.49302300  1
  H  1217  1  0.26708000  0.78214500  0.51943400  1
  H  1218  1  0.20856900  0.77788000  0.52006400  1
  H  1220  1  0.28202900  0.59731200  0.52848600  1
  H  1221  1  0.30990600  0.59978000  0.50137400  1
  H  1222  1  0.25142400  0.59539500  0.50214900  1
  H  1238  1  0.98457800  0.36515500  0.11295900  1
  H  1239  1  0.92898400  0.35829600  0.12096000  1
  H  1240  1  0.96009400  0.33715700  0.10408700  1
  H  1242  1  0.04102000  0.25788600  0.25736600  1
  H  1243  1  0.06598700  0.28559600  0.26667800  1
  H  1244  1  0.09622800  0.26496400  0.24882600  1
  H  1260  1  0.53600400  0.36478800  0.90824800  1
  H  1261  1  0.59166500  0.35795800  0.90036100  1
  H  1262  1  0.56045000  0.33678400  0.91713800  1
  H  1264  1  0.48080600  0.25768700  0.76359700  1
  H  1265  1  0.45588500  0.28539900  0.75426000  1
  H  1266  1  0.42552500  0.26473700  0.77202400  1
  H  1282  1  0.03766600  0.26363200  0.91598700  1
  H  1283  1  0.09344800  0.26976200  0.90781000  1
  H  1284  1  0.06247400  0.29200000  0.92342300  1
  H  1286  1  0.98337600  0.36324200  0.76652500  1
  H  1287  1  0.95811700  0.33525900  0.75822100  1
  H  1288  1  0.92819000  0.35661900  0.77542800  1
  H  1304  1  0.48322200  0.26321000  0.10525900  1
  H  1305  1  0.42745500  0.26937700  0.11343900  1
  H  1306  1  0.45843600  0.29156900  0.09777300  1
  H  1308  1  0.53764500  0.36301600  0.25459200  1
  H  1309  1  0.56287800  0.33503300  0.26292200  1
  H  1310  1  0.59282700  0.35636800  0.24569600  1
  H  1326  1  0.48473500  0.86525700  0.61247400  1
  H  1327  1  0.42911000  0.85851600  0.62050400  1
  H  1328  1  0.46004500  0.83730600  0.60362300  1
  H  1330  1  0.54065300  0.75801300  0.75694800  1
  H  1331  1  0.56583100  0.78568100  0.76622100  1
  H  1332  1  0.59589500  0.76496300  0.74837700  1
  H  1348  1  0.03579700  0.86496700  0.40870300  1
  H  1349  1  0.09150500  0.85825800  0.40080600  1
  H  1350  1  0.06044500  0.83701800  0.41759000  1
  H  1352  1  0.98135400  0.75782200  0.26400900  1
  H  1353  1  0.95622000  0.78548200  0.25469000  1
  H  1354  1  0.92602300  0.76474200  0.27244600  1
  H  1370  1  0.53760000  0.76344400  0.41693800  1
  H  1371  1  0.59336700  0.76953100  0.40870100  1
  H  1372  1  0.56257900  0.79174700  0.42444400  1
  H  1374  1  0.48358200  0.86332300  0.26759500  1
  H  1375  1  0.45817100  0.83536600  0.25933300  1
  H  1376  1  0.42833300  0.85682300  0.27647400  1
  H  1392  1  0.98318800  0.76293400  0.60431800  1
  H  1393  1  0.92743800  0.76905100  0.61256300  1
  H  1394  1  0.95822400  0.79122500  0.59676400  1
  H  1396  1  0.03735800  0.86304200  0.75351200  1
  H  1397  1  0.06275500  0.83509100  0.76180400  1
  H  1398  1  0.09259900  0.85652100  0.74463300  1
  H  1414  1  0.18469000  0.62249300  0.20795700  1
  H  1415  1  0.15847600  0.59477500  0.19966200  1
  H  1416  1  0.21069900  0.60287400  0.18748100  1
  H  1418  1  0.34743700  0.50254100  0.31667300  1
  H  1419  1  0.32195100  0.52206500  0.33741200  1
  H  1420  1  0.37333300  0.53050000  0.32448500  1
  H  1436  1  0.33743900  0.62239800  0.81321600  1
  H  1437  1  0.36366300  0.59467100  0.82147600  1
  H  1438  1  0.31143100  0.60274300  0.83366300  1
  H  1440  1  0.17445900  0.50263500  0.70440600  1
  H  1441  1  0.19992100  0.52217200  0.68366700  1
  H  1442  1  0.14859900  0.53062300  0.69665200  1
  H  1458  1  0.68491600  0.00403594  0.81290500  1
  H  1459  1  0.65833000  0.03167190  0.82112100  1
  H  1460  1  0.71060900  0.02379790  0.83336700  1
  H  1462  1  0.84724500  0.12430500  0.70434500  1
  H  1463  1  0.82210000  0.10471100  0.68355200  1
  H  1464  1  0.87341900  0.09639990  0.69661900  1
  H  1480  1  0.83736700  0.00411894  0.20813600  1
  H  1481  1  0.86389100  0.03178890  0.19996700  1
  H  1482  1  0.81166800  0.02387790  0.18767400  1
  H  1484  1  0.67454900  0.12414500  0.31673900  1
  H  1485  1  0.69971000  0.10454400  0.33752200  1
  H  1486  1  0.64842800  0.09621390  0.32442700  1
  C  1  1  0.37597800  0.02243700  0.18815700  1
  C  2  1  0.34670100  0.03141100  0.20543900  1
  C  3  1  0.31052600  0.04665600  0.19969900  1
  C  4  1  0.30233300  0.05463600  0.17656700  1
  C  5  1  0.33112100  0.04463700  0.15935700  1
  C  6  1  0.36710900  0.02927600  0.16491400  1
  C  7  1  0.26082300  0.06996900  0.17082600  1
  C  8  1  0.22345300  0.05097200  0.17387300  1
  C  9  1  0.22150100  0.03052000  0.15858800  1
  C  10  1  0.18547600  0.01420200  0.15833700  1
  C  11  1  0.14973200  0.01683700  0.17404400  1
  C  12  1  0.15296300  0.03560800  0.19087300  1
  C  13  1  0.18927600  0.05201500  0.19093600  1
  C  14  1  0.25595100  0.09334900  0.18559200  1
  C  15  1  0.26161400  0.08039200  0.14595400  1
  C  16  1  0.22565900  0.07824600  0.12999400  1
  C  17  1  0.22930100  0.08554800  0.10662100  1
  C  18  1  0.26872800  0.09637100  0.09821000  1
  C  19  1  0.30282700  0.10132800  0.11443600  1
  C  20  1  0.29888900  0.09389200  0.13781400  1
  C  21  1  0.29080300  0.10398500  0.19896000  1
  C  22  1  0.28589300  0.12642000  0.21091200  1
  C  23  1  0.24595000  0.14000700  0.20973300  1
  C  24  1  0.21152900  0.13007600  0.19585400  1
  C  25  1  0.21663900  0.10768000  0.18404800  1
  C  42  1  0.27383400  0.10241300  0.07488200  1
  C  43  1  0.41187500  0.00746100  0.19419800  1
  C  46  1  0.11222300  0.00216400  0.17117900  1
  C  48  1  0.23997600  0.16283100  0.22050400  1
  C  50  1  0.14511300  0.02262400  0.83290600  1
  C  51  1  0.17457700  0.03141100  0.81562600  1
  C  52  1  0.21084600  0.04659500  0.82134600  1
  C  53  1  0.21897500  0.05470100  0.84444600  1
  C  54  1  0.18995000  0.04490800  0.86165600  1
  C  55  1  0.15386300  0.02960800  0.85612300  1
  C  56  1  0.26067300  0.06988800  0.85016700  1
  C  57  1  0.29789200  0.05080600  0.84706100  1
  C  58  1  0.29952500  0.03022500  0.86220100  1
  C  59  1  0.33541900  0.01381700  0.86243600  1
  C  60  1  0.37136100  0.01649900  0.84685800  1
  C  61  1  0.36845100  0.03541100  0.83015500  1
  C  62  1  0.33226100  0.05189900  0.83010500  1
  C  63  1  0.26571400  0.09325600  0.83539600  1
  C  64  1  0.26001100  0.08027200  0.87506000  1
  C  65  1  0.29578200  0.07778900  0.89109200  1
  C  66  1  0.29223700  0.08516500  0.91444600  1
  C  67  1  0.25314500  0.09642300  0.92273400  1
  C  68  1  0.21925400  0.10166200  0.90648700  1
  C  69  1  0.22306500  0.09409300  0.88314000  1
  C  70  1  0.23100700  0.10391200  0.82193700  1
  C  71  1  0.23604500  0.12634900  0.81000800  1
  C  72  1  0.27597900  0.13993000  0.81130000  1
  C  73  1  0.31025000  0.12999400  0.82527600  1
  C  74  1  0.30500700  0.10759400  0.83705900  1
  C  91  1  0.24845600  0.10270400  0.94598700  1
  C  92  1  0.10917900  0.00766700  0.82689300  1
  C  95  1  0.40876900  0.00174900  0.84974600  1
  C  97  1  0.28206600  0.16274900  0.80053700  1
  C  99  1  0.87588900  0.90985300  0.83284400  1
  C  100  1  0.84623700  0.90111900  0.81562400  1
  C  101  1  0.81030900  0.88571200  0.82135800  1
  C  102  1  0.80239900  0.87750000  0.84444900  1
  C  103  1  0.83164600  0.88718600  0.86161000  1
  C  104  1  0.86756400  0.90260200  0.85603800  1
  C  105  1  0.76053400  0.86243500  0.85018500  1
  C  106  1  0.72357400  0.88161200  0.84678000  1
  C  107  1  0.72217900  0.90250500  0.86153600  1
  C  108  1  0.68893900  0.92044900  0.85982700  1
  C  109  1  0.65506400  0.91873800  0.84291700  1
  C  110  1  0.65670800  0.89871900  0.82739400  1
  C  111  1  0.69052300  0.88087800  0.82910500  1
  C  112  1  0.75549500  0.83907200  0.83541900  1
  C  113  1  0.76097600  0.85216800  0.87509900  1
  C  114  1  0.72540400  0.85502700  0.89117900  1
  C  115  1  0.72884900  0.84760200  0.91453500  1
  C  116  1  0.76766000  0.83601500  0.92282100  1
  C  117  1  0.80134900  0.83055100  0.90650800  1
  C  118  1  0.79762800  0.83811100  0.88316200  1
  C  119  1  0.79024300  0.82840000  0.82200600  1
  C  120  1  0.78513000  0.80604500  0.80996200  1
  C  121  1  0.74507900  0.79255600  0.81110300  1
  C  122  1  0.71074600  0.80251300  0.82502900  1
  C  123  1  0.71604200  0.82485600  0.83691600  1
  C  140  1  0.77265300  0.82975900  0.94610900  1
  C  141  1  0.91072500  0.92560700  0.82682900  1
  C  144  1  0.62309600  0.93712300  0.84171600  1
  C  146  1  0.73900000  0.76980000  0.80021700  1
  C  148  1  0.64518400  0.90963400  0.18834700  1
  C  149  1  0.67503600  0.90107500  0.20555200  1
  C  150  1  0.71106600  0.88574000  0.19982600  1
  C  151  1  0.71891000  0.87744200  0.17675500  1
  C  152  1  0.68941700  0.88692000  0.15960600  1
  C  153  1  0.65339300  0.90226400  0.16517500  1
  C  154  1  0.76093600  0.86250100  0.17103700  1
  C  155  1  0.79777500  0.88174500  0.17449800  1
  C  156  1  0.79887100  0.90275600  0.15988300  1
  C  157  1  0.83205200  0.92073400  0.16159600  1
  C  158  1  0.86614600  0.91895700  0.17837900  1
  C  159  1  0.86476400  0.89883400  0.19378800  1
  C  160  1  0.83102500  0.88094900  0.19206800  1
  C  161  1  0.76610900  0.83913600  0.18579400  1
  C  162  1  0.76060700  0.85227600  0.14610200  1
  C  163  1  0.79601400  0.85544000  0.12996700  1
  C  164  1  0.79267500  0.84796600  0.10662500  1
  C  165  1  0.75419200  0.83599800  0.09843900  1
  C  166  1  0.72070600  0.83025900  0.11475900  1
  C  167  1  0.72428400  0.83792100  0.13808500  1
  C  168  1  0.73150300  0.82845600  0.19930200  1
  C  169  1  0.73672100  0.80608000  0.21129600  1
  C  170  1  0.77676800  0.79260000  0.21005100  1
  C  171  1  0.81097200  0.80257500  0.19604700  1
  C  172  1  0.80555800  0.82492600  0.18418900  1
  C  189  1  0.74967400  0.82951900  0.07521900  1
  C  190  1  0.61027600  0.92534200  0.19435300  1
  C  193  1  0.89808800  0.93736100  0.17956700  1
  C  195  1  0.78294700  0.76983800  0.22090700  1
  C  197  1  0.87567900  0.52218000  0.68718800  1
  C  198  1  0.84684300  0.53127300  0.70461600  1
  C  199  1  0.81066700  0.54657100  0.69904500  1
  C  200  1  0.80208600  0.55452600  0.67594100  1
  C  201  1  0.83025700  0.54431900  0.65857200  1
  C  202  1  0.86626100  0.52889300  0.66396500  1
  C  203  1  0.76079300  0.57011900  0.67046700  1
  C  204  1  0.72343000  0.55106100  0.67322300  1
  C  205  1  0.72065900  0.53126700  0.65720900  1
  C  206  1  0.68469500  0.51490100  0.65692300  1
  C  207  1  0.64992300  0.51674300  0.67332700  1
  C  208  1  0.65413900  0.53479000  0.69080900  1
  C  209  1  0.69036600  0.55125500  0.69090100  1
  C  210  1  0.75642800  0.59315900  0.68572100  1
  C  211  1  0.76145800  0.58111500  0.64584600  1
  C  212  1  0.72492500  0.57987800  0.63016800  1
  C  213  1  0.72848000  0.58726300  0.60680700  1
  C  214  1  0.76842100  0.59731200  0.59819500  1
  C  215  1  0.80316300  0.60154200  0.61423400  1
  C  216  1  0.79928600  0.59405600  0.63760000  1
  C  217  1  0.79222000  0.60380700  0.69838600  1
  C  218  1  0.78731400  0.62535800  0.71170400  1
  C  219  1  0.74630700  0.63791200  0.71266100  1
  C  220  1  0.71108300  0.62837800  0.69913800  1
  C  221  1  0.71648100  0.60705300  0.68565500  1
  C  238  1  0.77347700  0.60329000  0.57485300  1
  C  239  1  0.91167900  0.50723200  0.69312300  1
  C  242  1  0.61242000  0.50199700  0.67059300  1
  C  244  1  0.73893200  0.65802600  0.72719700  1
  C  246  1  0.64533200  0.52243000  0.33386300  1
  C  247  1  0.67443000  0.53126000  0.31643500  1
  C  248  1  0.71073000  0.54648200  0.32197200  1
  C  249  1  0.71924100  0.55457900  0.34503800  1
  C  250  1  0.69069800  0.54470100  0.36241300  1
  C  251  1  0.65457100  0.52935100  0.35705000  1
  C  252  1  0.76071700  0.57004000  0.35048600  1
  C  253  1  0.79793300  0.55090200  0.34765100  1
  C  254  1  0.80032500  0.53092700  0.36347900  1
  C  255  1  0.83616000  0.51447600  0.36374700  1
  C  256  1  0.87118700  0.51641200  0.34750300  1
  C  257  1  0.86735700  0.53465200  0.33018200  1
  C  258  1  0.83125700  0.55120200  0.33010500  1
  C  259  1  0.76522500  0.59308200  0.33523700  1
  C  260  1  0.76022900  0.58099200  0.37513200  1
  C  261  1  0.79655500  0.57933700  0.39091300  1
  C  262  1  0.79307000  0.58679000  0.41425700  1
  C  263  1  0.75349200  0.59737400  0.42271300  1
  C  264  1  0.71902900  0.60198400  0.40662300  1
  C  265  1  0.72277000  0.59432400  0.38330000  1
  C  266  1  0.72960600  0.60369200  0.32240700  1
  C  267  1  0.73464900  0.62524900  0.30911400  1
  C  268  1  0.77563700  0.63783200  0.30832300  1
  C  269  1  0.81068100  0.62833600  0.32199300  1
  C  270  1  0.80514000  0.60700600  0.33545400  1
  C  287  1  0.74880400  0.60359400  0.44597900  1
  C  288  1  0.60927400  0.50751500  0.32796400  1
  C  291  1  0.90857600  0.50158100  0.35026100  1
  C  293  1  0.78312500  0.65798000  0.29384900  1
  C  295  1  0.37550500  0.41015200  0.33380400  1
  C  296  1  0.34636400  0.40126300  0.31641900  1
  C  297  1  0.31044100  0.38579200  0.32196800  1
  C  298  1  0.30205900  0.37767000  0.34504100  1
  C  299  1  0.33069000  0.38753800  0.36238000  1
  C  300  1  0.36659200  0.40304700  0.35698200  1
  C  301  1  0.26044700  0.36230100  0.35050300  1
  C  302  1  0.22344200  0.38149800  0.34731900  1
  C  303  1  0.22111200  0.40179800  0.36277800  1
  C  304  1  0.18792900  0.41978900  0.36116800  1
  C  305  1  0.15514400  0.41876100  0.34363200  1
  C  306  1  0.15785300  0.39941800  0.32739600  1
  C  307  1  0.19159300  0.38152700  0.32903200  1
  C  308  1  0.25600800  0.33922900  0.33530800  1
  C  309  1  0.26073700  0.35150600  0.37518900  1
  C  310  1  0.22456200  0.35350600  0.39101600  1
  C  311  1  0.22796800  0.34603100  0.41436300  1
  C  312  1  0.26733000  0.33517000  0.42282600  1
  C  313  1  0.30164800  0.33038100  0.40668500  1
  C  314  1  0.29797200  0.33799800  0.38335400  1
  C  315  1  0.29171600  0.32856700  0.32259100  1
  C  316  1  0.28668700  0.30704200  0.30926200  1
  C  317  1  0.24562900  0.29454300  0.30832300  1
  C  318  1  0.21044900  0.30412300  0.32185200  1
  C  319  1  0.21595200  0.32543500  0.33535000  1
  C  336  1  0.27233700  0.32899800  0.44613000  1
  C  337  1  0.41041300  0.42589900  0.32790500  1
  C  340  1  0.12330100  0.43720900  0.34251100  1
  C  342  1  0.23827700  0.27440000  0.29382200  1
  C  344  1  0.14550400  0.40988400  0.68740200  1
  C  345  1  0.17489700  0.40121700  0.70476900  1
  C  346  1  0.21094900  0.38583400  0.69923100  1
  C  347  1  0.21925600  0.37759800  0.67618600  1
  C  348  1  0.19033900  0.38723500  0.65885700  1
  C  349  1  0.15428200  0.40263800  0.66424800  1
  C  350  1  0.26103500  0.36236000  0.67074000  1
  C  351  1  0.29791200  0.38162800  0.67399800  1
  C  352  1  0.29992500  0.40207400  0.65870100  1
  C  353  1  0.33304900  0.42009600  0.66032500  1
  C  354  1  0.36611000  0.41895400  0.67771100  1
  C  355  1  0.36372800  0.39945800  0.69379600  1
  C  356  1  0.33004400  0.38153400  0.69215000  1
  C  357  1  0.26561600  0.33926700  0.68590500  1
  C  358  1  0.26088400  0.35162300  0.64602400  1
  C  359  1  0.29686400  0.35398900  0.63011900  1
  C  360  1  0.29356600  0.34644500  0.60678900  1
  C  361  1  0.25454800  0.33514300  0.59844700  1
  C  362  1  0.22047000  0.33001900  0.61461600  1
  C  363  1  0.22399000  0.33778200  0.63791300  1
  C  364  1  0.23007600  0.32864800  0.69878400  1
  C  365  1  0.23523600  0.30711700  0.71208900  1
  C  366  1  0.27627100  0.29458500  0.71286600  1
  C  367  1  0.31129700  0.30414700  0.69921800  1
  C  368  1  0.30565200  0.32545700  0.68573100  1
  C  385  1  0.24997300  0.32874300  0.57521700  1
  C  386  1  0.11048100  0.42555900  0.69328900  1
  C  389  1  0.39794200  0.43741300  0.67882900  1
  C  391  1  0.28373800  0.27443500  0.72733900  1
  C  393  1  0.25890500  0.08944400  0.98524300  1
  C  394  1  0.25425600  0.06779200  0.99835800  1
  C  395  1  0.25388200  0.06821800  0.02266400  1
  C  396  1  0.25917600  0.08995400  0.03558900  1
  C  397  1  0.26405600  0.11168900  0.02246900  1
  C  398  1  0.26403100  0.11128300  0.99813200  1
  C  401  1  0.24540000  0.03173300  0.01031000  1
  C  403  1  0.27298700  0.14773000  0.01043800  1
  C  405  1  0.23892600  0.00515000  0.01043700  1
  C  409  1  0.27961000  0.17428700  0.01028700  1
  C  415  1  0.75915900  0.84277500  0.03587200  1
  C  416  1  0.75420300  0.86440600  0.02275900  1
  C  417  1  0.75361500  0.86397100  0.99845700  1
  C  418  1  0.75887700  0.84224300  0.98551900  1
  C  419  1  0.76403500  0.82052000  0.99863300  1
  C  420  1  0.76428500  0.82093900  0.02297300  1
  C  423  1  0.74510700  0.90044900  0.01081900  1
  C  425  1  0.77333300  0.78449900  0.01066000  1
  C  427  1  0.73854000  0.92702500  0.01070000  1
  C  431  1  0.78015000  0.75795500  0.01080600  1
  C  437  1  0.75909600  0.59028000  0.48521700  1
  C  438  1  0.75446100  0.56861900  0.49832900  1
  C  439  1  0.75383000  0.56904300  0.52263900  1
  C  440  1  0.75890700  0.59078100  0.53558900  1
  C  441  1  0.76378400  0.61252000  0.52247200  1
  C  442  1  0.76402300  0.61211400  0.49813600  1
  C  445  1  0.74567400  0.53254400  0.51025800  1
  C  447  1  0.77262100  0.64857700  0.51047000  1
  C  449  1  0.73934900  0.50595000  0.51036400  1
  C  453  1  0.77907600  0.67514800  0.51034000  1
  C  459  1  0.25939800  0.34204500  0.53588500  1
  C  460  1  0.25449100  0.36368900  0.52278000  1
  C  461  1  0.25364600  0.36326000  0.49847500  1
  C  462  1  0.25863500  0.34152600  0.48551100  1
  C  463  1  0.26373500  0.31979300  0.49861900  1
  C  464  1  0.26421300  0.32020500  0.52295900  1
  C  467  1  0.24549000  0.39975400  0.51086800  1
  C  469  1  0.27286300  0.28374800  0.51061300  1
  C  471  1  0.23907900  0.42634100  0.51077100  1
  C  475  1  0.27945400  0.25718700  0.51073400  1
  C  481  1  0.97303300  0.94931900  0.18523400  1
  C  482  1  0.98022200  0.96759200  0.16817400  1
  C  483  1  0.01740800  0.98293300  0.16897200  1
  C  484  1  0.05021100  0.98117200  0.18656600  1
  C  485  1  0.04291500  0.96299100  0.20357700  1
  C  486  1  0.00600100  0.94746200  0.20262000  1
  C  489  1  0.97722300  0.99151400  0.13946500  1
  C  491  1  0.04715900  0.93824500  0.23152000  1
  C  493  1  0.96190800  0.00351600  0.11808900  1
  C  497  1  0.06346600  0.92558900  0.25234400  1
  C  503  1  0.54817800  0.94904700  0.83591800  1
  C  504  1  0.54082600  0.96728300  0.85299500  1
  C  505  1  0.50364000  0.98262000  0.85212900  1
  C  506  1  0.47098100  0.98087800  0.83446300  1
  C  507  1  0.47842500  0.96272400  0.81744300  1
  C  508  1  0.51534900  0.94720400  0.81845900  1
  C  511  1  0.54359700  0.99118700  0.88172400  1
  C  513  1  0.47443200  0.93801500  0.78945800  1
  C  515  1  0.55873300  0.00316300  0.90314800  1
  C  519  1  0.45830300  0.92537700  0.76858600  1
  C  525  1  0.05126400  0.98072800  0.84016500  1
  C  526  1  0.04347700  0.96363900  0.85811600  1
  C  527  1  0.00637300  0.94824500  0.85788100  1
  C  528  1  0.97433200  0.94864300  0.83994200  1
  C  529  1  0.98155400  0.96611900  0.82214400  1
  C  530  1  0.01862800  0.98160800  0.82243800  1
  C  533  1  0.04570400  0.94156000  0.88812000  1
  C  535  1  0.97725600  0.98980900  0.79329600  1
  C  537  1  0.06060700  0.93077100  0.91015600  1
  C  541  1  0.96085500  0.00171300  0.77209800  1
  C  547  1  0.46977200  0.98047600  0.18096000  1
  C  548  1  0.47751200  0.96334100  0.16304100  1
  C  549  1  0.51460500  0.94793800  0.16329300  1
  C  550  1  0.54666600  0.94836200  0.18122200  1
  C  551  1  0.53947400  0.96587300  0.19899300  1
  C  552  1  0.50236100  0.98133800  0.19870900  1
  C  555  1  0.47523600  0.94120200  0.13307800  1
  C  557  1  0.54374000  0.98955400  0.22784700  1
  C  559  1  0.46030000  0.93036900  0.11106800  1
  C  563  1  0.56015100  0.00147400  0.24903300  1
  C  569  1  0.47281400  0.44949000  0.68480100  1
  C  570  1  0.48011300  0.46773300  0.66772100  1
  C  571  1  0.51741600  0.48299400  0.66848600  1
  C  572  1  0.55025500  0.48118000  0.68605600  1
  C  573  1  0.54283600  0.46304700  0.70309800  1
  C  574  1  0.50579900  0.44759600  0.70217600  1
  C  577  1  0.47725000  0.49164300  0.63899100  1
  C  579  1  0.54694500  0.43832600  0.73107100  1
  C  581  1  0.46197900  0.50366700  0.61762000  1
  C  585  1  0.56319700  0.42566100  0.75190000  1
  C  591  1  0.04847500  0.44926900  0.33635000  1
  C  592  1  0.04098300  0.46748100  0.35343700  1
  C  593  1  0.00367600  0.48273300  0.35258500  1
  C  594  1  0.97100700  0.48092800  0.33492900  1
  C  595  1  0.97860100  0.46281500  0.31788900  1
  C  596  1  0.01565100  0.44737900  0.31888900  1
  C  599  1  0.04356700  0.49138100  0.38218000  1
  C  601  1  0.97478400  0.43811800  0.28988500  1
  C  603  1  0.05862300  0.50339100  0.40360000  1
  C  607  1  0.95874200  0.42545900  0.26900800  1
  C  613  1  0.55118800  0.48076400  0.34129500  1
  C  614  1  0.54335100  0.46365500  0.35922000  1
  C  615  1  0.50617100  0.44831700  0.35898600  1
  C  616  1  0.47408000  0.44880300  0.34107100  1
  C  617  1  0.48137500  0.46628700  0.32328700  1
  C  618  1  0.51853900  0.48171200  0.32357700  1
  C  621  1  0.54559700  0.44147700  0.38915500  1
  C  623  1  0.47723300  0.48996600  0.29441800  1
  C  625  1  0.56057200  0.43057600  0.41112700  1
  C  629  1  0.46095900  0.50184900  0.27318400  1
  C  635  1  0.96974100  0.48042800  0.67983400  1
  C  636  1  0.97753500  0.46327100  0.66194400  1
  C  637  1  0.01470700  0.44792800  0.66219800  1
  C  638  1  0.04682200  0.44844700  0.68009900  1
  C  639  1  0.03955600  0.46596900  0.69785300  1
  C  640  1  0.00235400  0.48136700  0.69757300  1
  C  643  1  0.97523900  0.44103000  0.63205500  1
  C  645  1  0.04367600  0.48964800  0.72672000  1
  C  647  1  0.96023300  0.43008300  0.61010900  1
  C  651  1  0.05997000  0.50155700  0.74793700  1
  C  657  1  0.26331600  0.19270700  0.24875500  1
  C  658  1  0.24393800  0.21487400  0.24090900  1
  C  659  1  0.24465800  0.23616700  0.25450600  1
  C  660  1  0.26434000  0.23718600  0.27686900  1
  C  661  1  0.28451500  0.21526100  0.28442300  1
  C  662  1  0.28375600  0.19397300  0.27086400  1
  C  665  1  0.21311900  0.24322700  0.22194700  1
  C  667  1  0.31748300  0.18743700  0.30293400  1
  C  669  1  0.19038800  0.25641600  0.20317700  1
  C  673  1  0.34149400  0.17452200  0.32144300  1
  C  679  1  0.25877900  0.19267600  0.77232100  1
  C  680  1  0.27815200  0.21483200  0.78019700  1
  C  681  1  0.27745700  0.23614000  0.76662100  1
  C  682  1  0.25774800  0.23719200  0.74426600  1
  C  683  1  0.23755300  0.21528100  0.73669000  1
  C  684  1  0.23832700  0.19397300  0.75021500  1
  C  687  1  0.30903200  0.24314800  0.79917900  1
  C  689  1  0.20452700  0.18749200  0.71815700  1
  C  691  1  0.33174900  0.25631400  0.81797000  1
  C  695  1  0.18042700  0.17461900  0.69965100  1
  C  701  1  0.76282500  0.73991200  0.77208300  1
  C  702  1  0.74360000  0.71770700  0.77991700  1
  C  703  1  0.74462000  0.69639700  0.76634600  1
  C  704  1  0.76451200  0.69539300  0.74403000  1
  C  705  1  0.78451100  0.71737500  0.73648800  1
  C  706  1  0.78344200  0.73867900  0.75001700  1
  C  709  1  0.71299100  0.68930100  0.79888000  1
  C  711  1  0.81739600  0.74527300  0.71802500  1
  C  713  1  0.69036100  0.67606600  0.81765400  1
  C  717  1  0.84148800  0.75823000  0.69957000  1
  C  723  1  0.75916100  0.73988900  0.24899800  1
  C  724  1  0.77847200  0.71771100  0.24115400  1
  C  725  1  0.77745100  0.69638100  0.25469500  1
  C  726  1  0.75758600  0.69534900  0.27701600  1
  C  727  1  0.73750400  0.71730500  0.28456900  1
  C  728  1  0.73851800  0.73861900  0.27105500  1
  C  731  1  0.80915700  0.68934300  0.22217100  1
  C  733  1  0.70449000  0.74515100  0.30303600  1
  C  735  1  0.83187900  0.67614800  0.20340100  1
  C  739  1  0.68034300  0.75806800  0.32149500  1
  C  745  1  0.37597800  0.36947600  0.18815700  1
  C  746  1  0.34670100  0.37845000  0.20543900  1
  C  747  1  0.31052600  0.39369500  0.19969900  1
  C  748  1  0.30233300  0.40167500  0.17656700  1
  C  749  1  0.33112100  0.39167600  0.15935700  1
  C  750  1  0.36710900  0.37631500  0.16491400  1
  C  751  1  0.26082300  0.41700800  0.17082600  1
  C  752  1  0.22345300  0.39801100  0.17387300  1
  C  753  1  0.22150100  0.37755900  0.15858800  1
  C  754  1  0.18547600  0.36124100  0.15833700  1
  C  755  1  0.14973200  0.36387600  0.17404400  1
  C  756  1  0.15296300  0.38264700  0.19087300  1
  C  757  1  0.18927600  0.39905400  0.19093600  1
  C  758  1  0.25595100  0.44038800  0.18559200  1
  C  759  1  0.26161400  0.42743100  0.14595400  1
  C  760  1  0.22565900  0.42528500  0.12999400  1
  C  761  1  0.22930100  0.43258700  0.10662100  1
  C  762  1  0.26872800  0.44341000  0.09821000  1
  C  763  1  0.30282700  0.44836700  0.11443600  1
  C  764  1  0.29888900  0.44093100  0.13781400  1
  C  765  1  0.29080300  0.45102400  0.19896000  1
  C  766  1  0.28589300  0.47345900  0.21091200  1
  C  767  1  0.24595000  0.48704600  0.20973300  1
  C  768  1  0.21152900  0.47711500  0.19585400  1
  C  769  1  0.21663900  0.45471900  0.18404800  1
  C  786  1  0.27383400  0.44945200  0.07488200  1
  C  787  1  0.41187500  0.35450000  0.19419800  1
  C  790  1  0.11222300  0.34920300  0.17117900  1
  C  792  1  0.23997600  0.50987000  0.22050400  1
  C  794  1  0.14511300  0.36966300  0.83290600  1
  C  795  1  0.17457700  0.37845000  0.81562600  1
  C  796  1  0.21084600  0.39363400  0.82134600  1
  C  797  1  0.21897500  0.40174000  0.84444600  1
  C  798  1  0.18995000  0.39194700  0.86165600  1
  C  799  1  0.15386300  0.37664700  0.85612300  1
  C  800  1  0.26067300  0.41692700  0.85016700  1
  C  801  1  0.29789200  0.39784500  0.84706100  1
  C  802  1  0.29952500  0.37726400  0.86220100  1
  C  803  1  0.33541900  0.36085600  0.86243600  1
  C  804  1  0.37136100  0.36353800  0.84685800  1
  C  805  1  0.36845100  0.38245000  0.83015500  1
  C  806  1  0.33226100  0.39893800  0.83010500  1
  C  807  1  0.26571400  0.44029500  0.83539600  1
  C  808  1  0.26001100  0.42731100  0.87506000  1
  C  809  1  0.29578200  0.42482800  0.89109200  1
  C  810  1  0.29223700  0.43220400  0.91444600  1
  C  811  1  0.25314500  0.44346200  0.92273400  1
  C  812  1  0.21925400  0.44870100  0.90648700  1
  C  813  1  0.22306500  0.44113200  0.88314000  1
  C  814  1  0.23100700  0.45095100  0.82193700  1
  C  815  1  0.23604500  0.47338800  0.81000800  1
  C  816  1  0.27597900  0.48696900  0.81130000  1
  C  817  1  0.31025000  0.47703300  0.82527600  1
  C  818  1  0.30500700  0.45463300  0.83705900  1
  C  835  1  0.24845600  0.44974300  0.94598700  1
  C  836  1  0.10917900  0.35470600  0.82689300  1
  C  839  1  0.40876900  0.34878800  0.84974600  1
  C  841  1  0.28206600  0.50978800  0.80053700  1
  C  843  1  0.87588900  0.25689200  0.83284400  1
  C  844  1  0.84623700  0.24815800  0.81562400  1
  C  845  1  0.81030900  0.23275100  0.82135800  1
  C  846  1  0.80239900  0.22453900  0.84444900  1
  C  847  1  0.83164600  0.23422500  0.86161000  1
  C  848  1  0.86756400  0.24964100  0.85603800  1
  C  849  1  0.76053400  0.20947400  0.85018500  1
  C  850  1  0.72357400  0.22865100  0.84678000  1
  C  851  1  0.72217900  0.24954400  0.86153600  1
  C  852  1  0.68893900  0.26748800  0.85982700  1
  C  853  1  0.65506400  0.26577700  0.84291700  1
  C  854  1  0.65670800  0.24575800  0.82739400  1
  C  855  1  0.69052300  0.22791700  0.82910500  1
  C  856  1  0.75549500  0.18611100  0.83541900  1
  C  857  1  0.76097600  0.19920700  0.87509900  1
  C  858  1  0.72540400  0.20206600  0.89117900  1
  C  859  1  0.72884900  0.19464100  0.91453500  1
  C  860  1  0.76766000  0.18305400  0.92282100  1
  C  861  1  0.80134900  0.17759000  0.90650800  1
  C  862  1  0.79762800  0.18515000  0.88316200  1
  C  863  1  0.79024300  0.17543900  0.82200600  1
  C  864  1  0.78513000  0.15308400  0.80996200  1
  C  865  1  0.74507900  0.13959500  0.81110300  1
  C  866  1  0.71074600  0.14955200  0.82502900  1
  C  867  1  0.71604200  0.17189500  0.83691600  1
  C  884  1  0.77265300  0.17679800  0.94610900  1
  C  885  1  0.91072500  0.27264600  0.82682900  1
  C  888  1  0.62309600  0.28416200  0.84171600  1
  C  890  1  0.73900000  0.11683900  0.80021700  1
  C  892  1  0.64518400  0.25667300  0.18834700  1
  C  893  1  0.67503600  0.24811400  0.20555200  1
  C  894  1  0.71106600  0.23277900  0.19982600  1
  C  895  1  0.71891000  0.22448100  0.17675500  1
  C  896  1  0.68941700  0.23395900  0.15960600  1
  C  897  1  0.65339300  0.24930300  0.16517500  1
  C  898  1  0.76093600  0.20954000  0.17103700  1
  C  899  1  0.79777500  0.22878400  0.17449800  1
  C  900  1  0.79887100  0.24979500  0.15988300  1
  C  901  1  0.83205200  0.26777300  0.16159600  1
  C  902  1  0.86614600  0.26599600  0.17837900  1
  C  903  1  0.86476400  0.24587300  0.19378800  1
  C  904  1  0.83102500  0.22798800  0.19206800  1
  C  905  1  0.76610900  0.18617500  0.18579400  1
  C  906  1  0.76060700  0.19931500  0.14610200  1
  C  907  1  0.79601400  0.20247900  0.12996700  1
  C  908  1  0.79267500  0.19500500  0.10662500  1
  C  909  1  0.75419200  0.18303700  0.09843900  1
  C  910  1  0.72070600  0.17729800  0.11475900  1
  C  911  1  0.72428400  0.18496000  0.13808500  1
  C  912  1  0.73150300  0.17549500  0.19930200  1
  C  913  1  0.73672100  0.15311900  0.21129600  1
  C  914  1  0.77676800  0.13963900  0.21005100  1
  C  915  1  0.81097200  0.14961400  0.19604700  1
  C  916  1  0.80555800  0.17196500  0.18418900  1
  C  933  1  0.74967400  0.17655800  0.07521900  1
  C  934  1  0.61027600  0.27238100  0.19435300  1
  C  937  1  0.89808800  0.28440000  0.17956700  1
  C  939  1  0.78294700  0.11687700  0.22090700  1
  C  941  1  0.87567900  0.86921900  0.68718800  1
  C  942  1  0.84684300  0.87831200  0.70461600  1
  C  943  1  0.81066700  0.89361000  0.69904500  1
  C  944  1  0.80208600  0.90156500  0.67594100  1
  C  945  1  0.83025700  0.89135800  0.65857200  1
  C  946  1  0.86626100  0.87593200  0.66396500  1
  C  947  1  0.76079300  0.91715800  0.67046700  1
  C  948  1  0.72343000  0.89810000  0.67322300  1
  C  949  1  0.72065900  0.87830600  0.65720900  1
  C  950  1  0.68469500  0.86194000  0.65692300  1
  C  951  1  0.64992300  0.86378200  0.67332700  1
  C  952  1  0.65413900  0.88182900  0.69080900  1
  C  953  1  0.69036600  0.89829400  0.69090100  1
  C  954  1  0.75642800  0.94019800  0.68572100  1
  C  955  1  0.76145800  0.92815400  0.64584600  1
  C  956  1  0.72492500  0.92691700  0.63016800  1
  C  957  1  0.72848000  0.93430200  0.60680700  1
  C  958  1  0.76842100  0.94435100  0.59819500  1
  C  959  1  0.80316300  0.94858100  0.61423400  1
  C  960  1  0.79928600  0.94109500  0.63760000  1
  C  961  1  0.79222000  0.95084600  0.69838600  1
  C  962  1  0.78731400  0.97239700  0.71170400  1
  C  963  1  0.74630700  0.98495100  0.71266100  1
  C  964  1  0.71108300  0.97541700  0.69913800  1
  C  965  1  0.71648100  0.95409200  0.68565500  1
  C  982  1  0.77347700  0.95032900  0.57485300  1
  C  983  1  0.91167900  0.85427100  0.69312300  1
  C  986  1  0.61242000  0.84903600  0.67059300  1
  C  988  1  0.73893200  0.00506494  0.72719700  1
  C  990  1  0.64533200  0.86946900  0.33386300  1
  C  991  1  0.67443000  0.87829900  0.31643500  1
  C  992  1  0.71073000  0.89352100  0.32197200  1
  C  993  1  0.71924100  0.90161800  0.34503800  1
  C  994  1  0.69069800  0.89174000  0.36241300  1
  C  995  1  0.65457100  0.87639000  0.35705000  1
  C  996  1  0.76071700  0.91707900  0.35048600  1
  C  997  1  0.79793300  0.89794100  0.34765100  1
  C  998  1  0.80032500  0.87796600  0.36347900  1
  C  999  1  0.83616000  0.86151500  0.36374700  1
  C  1000  1  0.87118700  0.86345100  0.34750300  1
  C  1001  1  0.86735700  0.88169100  0.33018200  1
  C  1002  1  0.83125700  0.89824100  0.33010500  1
  C  1003  1  0.76522500  0.94012100  0.33523700  1
  C  1004  1  0.76022900  0.92803100  0.37513200  1
  C  1005  1  0.79655500  0.92637600  0.39091300  1
  C  1006  1  0.79307000  0.93382900  0.41425700  1
  C  1007  1  0.75349200  0.94441300  0.42271300  1
  C  1008  1  0.71902900  0.94902300  0.40662300  1
  C  1009  1  0.72277000  0.94136300  0.38330000  1
  C  1010  1  0.72960600  0.95073100  0.32240700  1
  C  1011  1  0.73464900  0.97228800  0.30911400  1
  C  1012  1  0.77563700  0.98487100  0.30832300  1
  C  1013  1  0.81068100  0.97537500  0.32199300  1
  C  1014  1  0.80514000  0.95404500  0.33545400  1
  C  1031  1  0.74880400  0.95063300  0.44597900  1
  C  1032  1  0.60927400  0.85455400  0.32796400  1
  C  1035  1  0.90857600  0.84862000  0.35026100  1
  C  1037  1  0.78312500  0.00501894  0.29384900  1
  C  1039  1  0.37550500  0.75719100  0.33380400  1
  C  1040  1  0.34636400  0.74830200  0.31641900  1
  C  1041  1  0.31044100  0.73283100  0.32196800  1
  C  1042  1  0.30205900  0.72470900  0.34504100  1
  C  1043  1  0.33069000  0.73457700  0.36238000  1
  C  1044  1  0.36659200  0.75008600  0.35698200  1
  C  1045  1  0.26044700  0.70934000  0.35050300  1
  C  1046  1  0.22344200  0.72853700  0.34731900  1
  C  1047  1  0.22111200  0.74883700  0.36277800  1
  C  1048  1  0.18792900  0.76682800  0.36116800  1
  C  1049  1  0.15514400  0.76580000  0.34363200  1
  C  1050  1  0.15785300  0.74645700  0.32739600  1
  C  1051  1  0.19159300  0.72856600  0.32903200  1
  C  1052  1  0.25600800  0.68626800  0.33530800  1
  C  1053  1  0.26073700  0.69854500  0.37518900  1
  C  1054  1  0.22456200  0.70054500  0.39101600  1
  C  1055  1  0.22796800  0.69307000  0.41436300  1
  C  1056  1  0.26733000  0.68220900  0.42282600  1
  C  1057  1  0.30164800  0.67742000  0.40668500  1
  C  1058  1  0.29797200  0.68503700  0.38335400  1
  C  1059  1  0.29171600  0.67560600  0.32259100  1
  C  1060  1  0.28668700  0.65408100  0.30926200  1
  C  1061  1  0.24562900  0.64158200  0.30832300  1
  C  1062  1  0.21044900  0.65116200  0.32185200  1
  C  1063  1  0.21595200  0.67247400  0.33535000  1
  C  1080  1  0.27233700  0.67603700  0.44613000  1
  C  1081  1  0.41041300  0.77293800  0.32790500  1
  C  1084  1  0.12330100  0.78424800  0.34251100  1
  C  1086  1  0.23827700  0.62143900  0.29382200  1
  C  1088  1  0.14550400  0.75692300  0.68740200  1
  C  1089  1  0.17489700  0.74825600  0.70476900  1
  C  1090  1  0.21094900  0.73287300  0.69923100  1
  C  1091  1  0.21925600  0.72463700  0.67618600  1
  C  1092  1  0.19033900  0.73427400  0.65885700  1
  C  1093  1  0.15428200  0.74967700  0.66424800  1
  C  1094  1  0.26103500  0.70939900  0.67074000  1
  C  1095  1  0.29791200  0.72866700  0.67399800  1
  C  1096  1  0.29992500  0.74911300  0.65870100  1
  C  1097  1  0.33304900  0.76713500  0.66032500  1
  C  1098  1  0.36611000  0.76599300  0.67771100  1
  C  1099  1  0.36372800  0.74649700  0.69379600  1
  C  1100  1  0.33004400  0.72857300  0.69215000  1
  C  1101  1  0.26561600  0.68630600  0.68590500  1
  C  1102  1  0.26088400  0.69866200  0.64602400  1
  C  1103  1  0.29686400  0.70102800  0.63011900  1
  C  1104  1  0.29356600  0.69348400  0.60678900  1
  C  1105  1  0.25454800  0.68218200  0.59844700  1
  C  1106  1  0.22047000  0.67705800  0.61461600  1
  C  1107  1  0.22399000  0.68482100  0.63791300  1
  C  1108  1  0.23007600  0.67568700  0.69878400  1
  C  1109  1  0.23523600  0.65415600  0.71208900  1
  C  1110  1  0.27627100  0.64162400  0.71286600  1
  C  1111  1  0.31129700  0.65118600  0.69921800  1
  C  1112  1  0.30565200  0.67249600  0.68573100  1
  C  1129  1  0.24997300  0.67578200  0.57521700  1
  C  1130  1  0.11048100  0.77259800  0.69328900  1
  C  1133  1  0.39794200  0.78445200  0.67882900  1
  C  1135  1  0.28373800  0.62147400  0.72733900  1
  C  1137  1  0.25890500  0.43648300  0.98524300  1
  C  1138  1  0.25425600  0.41483100  0.99835800  1
  C  1139  1  0.25388200  0.41525700  0.02266400  1
  C  1140  1  0.25917600  0.43699300  0.03558900  1
  C  1141  1  0.26405600  0.45872800  0.02246900  1
  C  1142  1  0.26403100  0.45832200  0.99813200  1
  C  1145  1  0.24540000  0.37877200  0.01031000  1
  C  1147  1  0.27298700  0.49476900  0.01043800  1
  C  1149  1  0.23892600  0.35218900  0.01043700  1
  C  1153  1  0.27961000  0.52132600  0.01028700  1
  C  1159  1  0.75915900  0.18981400  0.03587200  1
  C  1160  1  0.75420300  0.21144500  0.02275900  1
  C  1161  1  0.75361500  0.21101000  0.99845700  1
  C  1162  1  0.75887700  0.18928200  0.98551900  1
  C  1163  1  0.76403500  0.16755900  0.99863300  1
  C  1164  1  0.76428500  0.16797800  0.02297300  1
  C  1167  1  0.74510700  0.24748800  0.01081900  1
  C  1169  1  0.77333300  0.13153800  0.01066000  1
  C  1171  1  0.73854000  0.27406400  0.01070000  1
  C  1175  1  0.78015000  0.10499400  0.01080600  1
  C  1181  1  0.75909600  0.93731900  0.48521700  1
  C  1182  1  0.75446100  0.91565800  0.49832900  1
  C  1183  1  0.75383000  0.91608200  0.52263900  1
  C  1184  1  0.75890700  0.93782000  0.53558900  1
  C  1185  1  0.76378400  0.95955900  0.52247200  1
  C  1186  1  0.76402300  0.95915300  0.49813600  1
  C  1189  1  0.74567400  0.87958300  0.51025800  1
  C  1191  1  0.77262100  0.99561600  0.51047000  1
  C  1193  1  0.73934900  0.85298900  0.51036400  1
  C  1197  1  0.77907600  0.02218690  0.51034000  1
  C  1203  1  0.25939800  0.68908400  0.53588500  1
  C  1204  1  0.25449100  0.71072800  0.52278000  1
  C  1205  1  0.25364600  0.71029900  0.49847500  1
  C  1206  1  0.25863500  0.68856500  0.48551100  1
  C  1207  1  0.26373500  0.66683200  0.49861900  1
  C  1208  1  0.26421300  0.66724400  0.52295900  1
  C  1211  1  0.24549000  0.74679300  0.51086800  1
  C  1213  1  0.27286300  0.63078700  0.51061300  1
  C  1215  1  0.23907900  0.77338000  0.51077100  1
  C  1219  1  0.27945400  0.60422600  0.51073400  1
  C  1225  1  0.97303300  0.29635800  0.18523400  1
  C  1226  1  0.98022200  0.31463100  0.16817400  1
  C  1227  1  0.01740800  0.32997200  0.16897200  1
  C  1228  1  0.05021100  0.32821100  0.18656600  1
  C  1229  1  0.04291500  0.31003000  0.20357700  1
  C  1230  1  0.00600100  0.29450100  0.20262000  1
  C  1233  1  0.97722300  0.33855300  0.13946500  1
  C  1235  1  0.04715900  0.28528400  0.23152000  1
  C  1237  1  0.96190800  0.35055500  0.11808900  1
  C  1241  1  0.06346600  0.27262800  0.25234400  1
  C  1247  1  0.54817800  0.29608600  0.83591800  1
  C  1248  1  0.54082600  0.31432200  0.85299500  1
  C  1249  1  0.50364000  0.32965900  0.85212900  1
  C  1250  1  0.47098100  0.32791700  0.83446300  1
  C  1251  1  0.47842500  0.30976300  0.81744300  1
  C  1252  1  0.51534900  0.29424300  0.81845900  1
  C  1255  1  0.54359700  0.33822600  0.88172400  1
  C  1257  1  0.47443200  0.28505400  0.78945800  1
  C  1259  1  0.55873300  0.35020200  0.90314800  1
  C  1263  1  0.45830300  0.27241600  0.76858600  1
  C  1269  1  0.05126400  0.32776700  0.84016500  1
  C  1270  1  0.04347700  0.31067800  0.85811600  1
  C  1271  1  0.00637300  0.29528400  0.85788100  1
  C  1272  1  0.97433200  0.29568200  0.83994200  1
  C  1273  1  0.98155400  0.31315800  0.82214400  1
  C  1274  1  0.01862800  0.32864700  0.82243800  1
  C  1277  1  0.04570400  0.28859900  0.88812000  1
  C  1279  1  0.97725600  0.33684800  0.79329600  1
  C  1281  1  0.06060700  0.27781000  0.91015600  1
  C  1285  1  0.96085500  0.34875200  0.77209800  1
  C  1291  1  0.46977200  0.32751500  0.18096000  1
  C  1292  1  0.47751200  0.31038000  0.16304100  1
  C  1293  1  0.51460500  0.29497700  0.16329300  1
  C  1294  1  0.54666600  0.29540100  0.18122200  1
  C  1295  1  0.53947400  0.31291200  0.19899300  1
  C  1296  1  0.50236100  0.32837700  0.19870900  1
  C  1299  1  0.47523600  0.28824100  0.13307800  1
  C  1301  1  0.54374000  0.33659300  0.22784700  1
  C  1303  1  0.46030000  0.27740800  0.11106800  1
  C  1307  1  0.56015100  0.34851300  0.24903300  1
  C  1313  1  0.47281400  0.79652900  0.68480100  1
  C  1314  1  0.48011300  0.81477200  0.66772100  1
  C  1315  1  0.51741600  0.83003300  0.66848600  1
  C  1316  1  0.55025500  0.82821900  0.68605600  1
  C  1317  1  0.54283600  0.81008600  0.70309800  1
  C  1318  1  0.50579900  0.79463500  0.70217600  1
  C  1321  1  0.47725000  0.83868200  0.63899100  1
  C  1323  1  0.54694500  0.78536500  0.73107100  1
  C  1325  1  0.46197900  0.85070600  0.61762000  1
  C  1329  1  0.56319700  0.77270000  0.75190000  1
  C  1335  1  0.04847500  0.79630800  0.33635000  1
  C  1336  1  0.04098300  0.81452000  0.35343700  1
  C  1337  1  0.00367600  0.82977200  0.35258500  1
  C  1338  1  0.97100700  0.82796700  0.33492900  1
  C  1339  1  0.97860100  0.80985400  0.31788900  1
  C  1340  1  0.01565100  0.79441800  0.31888900  1
  C  1343  1  0.04356700  0.83842000  0.38218000  1
  C  1345  1  0.97478400  0.78515700  0.28988500  1
  C  1347  1  0.05862300  0.85043000  0.40360000  1
  C  1351  1  0.95874200  0.77249800  0.26900800  1
  C  1357  1  0.55118800  0.82780300  0.34129500  1
  C  1358  1  0.54335100  0.81069400  0.35922000  1
  C  1359  1  0.50617100  0.79535600  0.35898600  1
  C  1360  1  0.47408000  0.79584200  0.34107100  1
  C  1361  1  0.48137500  0.81332600  0.32328700  1
  C  1362  1  0.51853900  0.82875100  0.32357700  1
  C  1365  1  0.54559700  0.78851600  0.38915500  1
  C  1367  1  0.47723300  0.83700500  0.29441800  1
  C  1369  1  0.56057200  0.77761500  0.41112700  1
  C  1373  1  0.46095900  0.84888800  0.27318400  1
  C  1379  1  0.96974100  0.82746700  0.67983400  1
  C  1380  1  0.97753500  0.81031000  0.66194400  1
  C  1381  1  0.01470700  0.79496700  0.66219800  1
  C  1382  1  0.04682200  0.79548600  0.68009900  1
  C  1383  1  0.03955600  0.81300800  0.69785300  1
  C  1384  1  0.00235400  0.82840600  0.69757300  1
  C  1387  1  0.97523900  0.78806900  0.63205500  1
  C  1389  1  0.04367600  0.83668700  0.72672000  1
  C  1391  1  0.96023300  0.77712200  0.61010900  1
  C  1395  1  0.05997000  0.84859600  0.74793700  1
  C  1401  1  0.26331600  0.53974600  0.24875500  1
  C  1402  1  0.24393800  0.56191300  0.24090900  1
  C  1403  1  0.24465800  0.58320600  0.25450600  1
  C  1404  1  0.26434000  0.58422500  0.27686900  1
  C  1405  1  0.28451500  0.56230000  0.28442300  1
  C  1406  1  0.28375600  0.54101200  0.27086400  1
  C  1409  1  0.21311900  0.59026600  0.22194700  1
  C  1411  1  0.31748300  0.53447600  0.30293400  1
  C  1413  1  0.19038800  0.60345500  0.20317700  1
  C  1417  1  0.34149400  0.52156100  0.32144300  1
  C  1423  1  0.25877900  0.53971500  0.77232100  1
  C  1424  1  0.27815200  0.56187100  0.78019700  1
  C  1425  1  0.27745700  0.58317900  0.76662100  1
  C  1426  1  0.25774800  0.58423100  0.74426600  1
  C  1427  1  0.23755300  0.56232000  0.73669000  1
  C  1428  1  0.23832700  0.54101200  0.75021500  1
  C  1431  1  0.30903200  0.59018700  0.79917900  1
  C  1433  1  0.20452700  0.53453100  0.71815700  1
  C  1435  1  0.33174900  0.60335300  0.81797000  1
  C  1439  1  0.18042700  0.52165800  0.69965100  1
  C  1445  1  0.76282500  0.08695090  0.77208300  1
  C  1446  1  0.74360000  0.06474590  0.77991700  1
  C  1447  1  0.74462000  0.04343590  0.76634600  1
  C  1448  1  0.76451200  0.04243190  0.74403000  1
  C  1449  1  0.78451100  0.06441390  0.73648800  1
  C  1450  1  0.78344200  0.08571790  0.75001700  1
  C  1453  1  0.71299100  0.03633990  0.79888000  1
  C  1455  1  0.81739600  0.09231190  0.71802500  1
  C  1457  1  0.69036100  0.02310490  0.81765400  1
  C  1461  1  0.84148800  0.10526900  0.69957000  1
  C  1467  1  0.75916100  0.08692790  0.24899800  1
  C  1468  1  0.77847200  0.06474990  0.24115400  1
  C  1469  1  0.77745100  0.04341990  0.25469500  1
  C  1470  1  0.75758600  0.04238790  0.27701600  1
  C  1471  1  0.73750400  0.06434390  0.28456900  1
  C  1472  1  0.73851800  0.08565790  0.27105500  1
  C  1475  1  0.80915700  0.03638190  0.22217100  1
  C  1477  1  0.70449000  0.09218990  0.30303600  1
  C  1479  1  0.83187900  0.02318690  0.20340100  1
  C  1483  1  0.68034300  0.10510700  0.32149500  1
  N  399  1  0.24830700  0.04527900  0.02976700  1
  N  402  1  0.27006300  0.13416600  0.99102300  1
  N  413  1  0.26034100  0.08784500  0.96218100  1
  N  414  1  0.25804900  0.08867800  0.05869100  1
  N  421  1  0.74788800  0.88690000  0.99136000  1
  N  424  1  0.77052300  0.79806900  0.03007500  1
  N  435  1  0.76080700  0.84443700  0.05892800  1
  N  436  1  0.75762100  0.84358700  0.96241900  1
  N  443  1  0.74832200  0.54609300  0.52972400  1
  N  446  1  0.76997300  0.63501200  0.49104600  1
  N  457  1  0.76076700  0.58871300  0.46214600  1
  N  458  1  0.75756400  0.58954200  0.55870400  1
  N  465  1  0.24799900  0.38620300  0.49139900  1
  N  468  1  0.27034700  0.29731700  0.53003900  1
  N  479  1  0.26117500  0.34367800  0.55895200  1
  N  480  1  0.25720100  0.34284700  0.46240200  1
  N  487  1  0.01453300  0.99788600  0.15078500  1
  N  490  1  0.00943600  0.93207900  0.22043800  1
  N  501  1  0.93910800  0.93354000  0.18486700  1
  N  502  1  0.08646100  0.99526000  0.18782700  1
  N  509  1  0.50636400  0.99755800  0.87033600  1
  N  512  1  0.51207400  0.93184700  0.80061500  1
  N  523  1  0.58212900  0.93329000  0.83632000  1
  N  524  1  0.43477400  0.99499300  0.83314600  1
  N  531  1  0.00857200  0.93453300  0.87696300  1
  N  534  1  0.01496600  0.99633600  0.80413500  1
  N  545  1  0.08628300  0.99557800  0.84194700  1
  N  546  1  0.93931700  0.93375500  0.84160800  1
  N  553  1  0.51237600  0.93419000  0.14423800  1
  N  556  1  0.50604200  0.99608400  0.21699800  1
  N  567  1  0.43474700  0.99532200  0.17916900  1
  N  568  1  0.58170000  0.93349000  0.17956200  1
  N  575  1  0.51462300  0.49794000  0.65029100  1
  N  578  1  0.50916100  0.43222800  0.72000800  1
  N  589  1  0.43885000  0.43372400  0.68444300  1
  N  590  1  0.58658800  0.49522100  0.68726500  1
  N  597  1  0.00628400  0.49767000  0.37079500  1
  N  600  1  0.01247500  0.43202700  0.30103700  1
  N  611  1  0.08246600  0.43352500  0.33675300  1
  N  612  1  0.93470700  0.49498500  0.33365100  1
  N  619  1  0.50838300  0.43454000  0.37802200  1
  N  622  1  0.51497500  0.49643200  0.30526200  1
  N  633  1  0.58631900  0.49554000  0.34307400  1
  N  634  1  0.43899600  0.43395700  0.34273300  1
  N  641  1  0.01246500  0.43411100  0.64318900  1
  N  644  1  0.00593900  0.49611000  0.71586900  1
  N  655  1  0.93461800  0.49520600  0.67804100  1
  N  656  1  0.08193900  0.43362500  0.67844100  1
  N  663  1  0.22515200  0.25367600  0.24213100  1
  N  666  1  0.30471600  0.17675100  0.28295800  1
  N  677  1  0.26488900  0.17160800  0.23677200  1
  N  678  1  0.26699400  0.25731600  0.29014700  1
  N  685  1  0.29698400  0.25362900  0.77901100  1
  N  688  1  0.21731500  0.17677500  0.73811400  1
  N  699  1  0.25717000  0.17156900  0.78428300  1
  N  700  1  0.25504800  0.25734200  0.73102400  1
  N  707  1  0.72525900  0.67885000  0.77873400  1
  N  710  1  0.80437400  0.75594400  0.73796300  1
  N  721  1  0.76423400  0.76098300  0.78410400  1
  N  722  1  0.76740900  0.67525500  0.73076000  1
  N  729  1  0.79689200  0.67886100  0.24230300  1
  N  732  1  0.71751900  0.75585400  0.28311700  1
  N  743  1  0.75773300  0.76097200  0.23700500  1
  N  744  1  0.75461900  0.67518600  0.29023600  1
  N  1143  1  0.24830700  0.39231800  0.02976700  1
  N  1146  1  0.27006300  0.48120500  0.99102300  1
  N  1157  1  0.26034100  0.43488400  0.96218100  1
  N  1158  1  0.25804900  0.43571700  0.05869100  1
  N  1165  1  0.74788800  0.23393900  0.99136000  1
  N  1168  1  0.77052300  0.14510800  0.03007500  1
  N  1179  1  0.76080700  0.19147600  0.05892800  1
  N  1180  1  0.75762100  0.19062600  0.96241900  1
  N  1187  1  0.74832200  0.89313200  0.52972400  1
  N  1190  1  0.76997300  0.98205100  0.49104600  1
  N  1201  1  0.76076700  0.93575200  0.46214600  1
  N  1202  1  0.75756400  0.93658100  0.55870400  1
  N  1209  1  0.24799900  0.73324200  0.49139900  1
  N  1212  1  0.27034700  0.64435600  0.53003900  1
  N  1223  1  0.26117500  0.69071700  0.55895200  1
  N  1224  1  0.25720100  0.68988600  0.46240200  1
  N  1231  1  0.01453300  0.34492500  0.15078500  1
  N  1234  1  0.00943600  0.27911800  0.22043800  1
  N  1245  1  0.93910800  0.28057900  0.18486700  1
  N  1246  1  0.08646100  0.34229900  0.18782700  1
  N  1253  1  0.50636400  0.34459700  0.87033600  1
  N  1256  1  0.51207400  0.27888600  0.80061500  1
  N  1267  1  0.58212900  0.28032900  0.83632000  1
  N  1268  1  0.43477400  0.34203200  0.83314600  1
  N  1275  1  0.00857200  0.28157200  0.87696300  1
  N  1278  1  0.01496600  0.34337500  0.80413500  1
  N  1289  1  0.08628300  0.34261700  0.84194700  1
  N  1290  1  0.93931700  0.28079400  0.84160800  1
  N  1297  1  0.51237600  0.28122900  0.14423800  1
  N  1300  1  0.50604200  0.34312300  0.21699800  1
  N  1311  1  0.43474700  0.34236100  0.17916900  1
  N  1312  1  0.58170000  0.28052900  0.17956200  1
  N  1319  1  0.51462300  0.84497900  0.65029100  1
  N  1322  1  0.50916100  0.77926700  0.72000800  1
  N  1333  1  0.43885000  0.78076300  0.68444300  1
  N  1334  1  0.58658800  0.84226000  0.68726500  1
  N  1341  1  0.00628400  0.84470900  0.37079500  1
  N  1344  1  0.01247500  0.77906600  0.30103700  1
  N  1355  1  0.08246600  0.78056400  0.33675300  1
  N  1356  1  0.93470700  0.84202400  0.33365100  1
  N  1363  1  0.50838300  0.78157900  0.37802200  1
  N  1366  1  0.51497500  0.84347100  0.30526200  1
  N  1377  1  0.58631900  0.84257900  0.34307400  1
  N  1378  1  0.43899600  0.78099600  0.34273300  1
  N  1385  1  0.01246500  0.78115000  0.64318900  1
  N  1388  1  0.00593900  0.84314900  0.71586900  1
  N  1399  1  0.93461800  0.84224500  0.67804100  1
  N  1400  1  0.08193900  0.78066400  0.67844100  1
  N  1407  1  0.22515200  0.60071500  0.24213100  1
  N  1410  1  0.30471600  0.52379000  0.28295800  1
  N  1421  1  0.26488900  0.51864700  0.23677200  1
  N  1422  1  0.26699400  0.60435500  0.29014700  1
  N  1429  1  0.29698400  0.60066800  0.77901100  1
  N  1432  1  0.21731500  0.52381400  0.73811400  1
  N  1443  1  0.25717000  0.51860800  0.78428300  1
  N  1444  1  0.25504800  0.60438100  0.73102400  1
  N  1451  1  0.72525900  0.02588890  0.77873400  1
  N  1454  1  0.80437400  0.10298300  0.73796300  1
  N  1465  1  0.76423400  0.10802200  0.78410400  1
  N  1466  1  0.76740900  0.02229390  0.73076000  1
  N  1473  1  0.79689200  0.02589990  0.24230300  1
  N  1476  1  0.71751900  0.10289300  0.28311700  1
  N  1487  1  0.75773300  0.10801100  0.23700500  1
  N  1488  1  0.75461900  0.02222490  0.29023600  1
  O  400  1  0.24896500  0.04470900  0.98999500  1
  O  404  1  0.26904600  0.13481500  0.03072900  1
  O  422  1  0.74890800  0.88748600  0.03112800  1
  O  426  1  0.76912400  0.79739800  0.99037400  1
  O  444  1  0.74936200  0.54552900  0.48995200  1
  O  448  1  0.76855400  0.63565300  0.53074800  1
  O  466  1  0.24939600  0.38677700  0.53116500  1
  O  470  1  0.26855000  0.29666200  0.49034300  1
  O  488  1  0.95443000  0.97247000  0.14928600  1
  O  492  1  0.06983400  0.95744000  0.22182900  1
  O  510  1  0.56648200  0.97215800  0.87193400  1
  O  514  1  0.45165900  0.95719100  0.79912300  1
  O  532  1  0.06912800  0.95977000  0.87726500  1
  O  536  1  0.95455900  0.97113300  0.80377000  1
  O  554  1  0.45184600  0.95944500  0.14390300  1
  O  558  1  0.56642900  0.97086700  0.21738600  1
  O  576  1  0.45435100  0.47264900  0.64883000  1
  O  580  1  0.56974200  0.45746300  0.72134700  1
  O  598  1  0.06658100  0.47240400  0.37238600  1
  O  602  1  0.95187500  0.45723600  0.29956700  1
  O  620  1  0.56906700  0.45968600  0.37832800  1
  O  624  1  0.45442100  0.47134300  0.30490400  1
  O  642  1  0.95180200  0.45927100  0.64285000  1
  O  646  1  0.06648100  0.47101400  0.71625000  1
  O  664  1  0.22417700  0.21904200  0.21999100  1
  O  668  1  0.30589900  0.21156800  0.30497000  1
  O  686  1  0.29796200  0.21896300  0.80110800  1
  O  690  1  0.21612400  0.21162400  0.71614700  1
  O  708  1  0.72377800  0.71352300  0.80081400  1
  O  712  1  0.80603100  0.72111000  0.71598400  1
  O  730  1  0.79833100  0.71356300  0.22026000  1
  O  734  1  0.71591400  0.72099500  0.30506100  1
  O  1144  1  0.24896500  0.39174800  0.98999500  1
  O  1148  1  0.26904600  0.48185400  0.03072900  1
  O  1166  1  0.74890800  0.23452500  0.03112800  1
  O  1170  1  0.76912400  0.14443700  0.99037400  1
  O  1188  1  0.74936200  0.89256800  0.48995200  1
  O  1192  1  0.76855400  0.98269200  0.53074800  1
  O  1210  1  0.24939600  0.73381600  0.53116500  1
  O  1214  1  0.26855000  0.64370100  0.49034300  1
  O  1232  1  0.95443000  0.31950900  0.14928600  1
  O  1236  1  0.06983400  0.30447900  0.22182900  1
  O  1254  1  0.56648200  0.31919700  0.87193400  1
  O  1258  1  0.45165900  0.30423000  0.79912300  1
  O  1276  1  0.06912800  0.30680900  0.87726500  1
  O  1280  1  0.95455900  0.31817200  0.80377000  1
  O  1298  1  0.45184600  0.30648400  0.14390300  1
  O  1302  1  0.56642900  0.31790600  0.21738600  1
  O  1320  1  0.45435100  0.81968800  0.64883000  1
  O  1324  1  0.56974200  0.80450200  0.72134700  1
  O  1342  1  0.06658100  0.81944300  0.37238600  1
  O  1346  1  0.95187500  0.80427500  0.29956700  1
  O  1364  1  0.56906700  0.80672500  0.37832800  1
  O  1368  1  0.45442100  0.81838200  0.30490400  1
  O  1386  1  0.95180200  0.80631000  0.64285000  1
  O  1390  1  0.06648100  0.81805300  0.71625000  1
  O  1408  1  0.22417700  0.56608100  0.21999100  1
  O  1412  1  0.30589900  0.55860700  0.30497000  1
  O  1430  1  0.29796200  0.56600200  0.80110800  1
  O  1434  1  0.21612400  0.55866300  0.71614700  1
  O  1452  1  0.72377800  0.06056190  0.80081400  1
  O  1456  1  0.80603100  0.06814890  0.71598400  1
  O  1474  1  0.79833100  0.06060190  0.22026000  1
  O  1478  1  0.71591400  0.06803390  0.30506100  1
