# generated using pymatgen
data_H29(C8N)6
_symmetry_space_group_name_H-M   'P 1'
_cell_length_a   68.76300000
_cell_length_b   68.76300000
_cell_length_c   68.76300000
_cell_angle_alpha   90.00000000
_cell_angle_beta   90.00000000
_cell_angle_gamma   90.00000000
_symmetry_Int_Tables_number   1
_chemical_formula_structural   H29(C8N)6
_chemical_formula_sum   'H696 C1152 N144'
_cell_volume   325135.54267095
_cell_formula_units_Z   24
loop_
 _symmetry_equiv_pos_site_id
 _symmetry_equiv_pos_as_xyz
  1  'x, y, z'
loop_
 _atom_site_type_symbol
 _atom_site_label
 _atom_site_symmetry_multiplicity
 _atom_site_fract_x
 _atom_site_fract_y
 _atom_site_fract_z
 _atom_site_occupancy
  H  73  1  0.03261800  0.47996500  0.34139200  1
  H  74  1  0.03229300  0.48320600  0.37573800  1
  H  75  1  0.99920500  0.53119700  0.33611000  1
  H  76  1  0.99920300  0.53463100  0.37068600  1
  H  77  1  0.98557200  0.51778600  0.40062300  1
  H  78  1  0.98488900  0.51877900  0.43539600  1
  H  79  1  0.04542300  0.50419100  0.40233400  1
  H  80  1  0.04461700  0.50504500  0.43704800  1
  H  81  1  0.01430800  0.47287900  0.44684700  1
  H  82  1  0.01477800  0.44691900  0.47290700  1
  H  83  1  0.01415000  0.49987600  0.49969800  1
  H  84  1  0.01362100  0.52408000  0.52380700  1
  H  85  1  0.01521200  0.55135800  0.44612100  1
  H  86  1  0.01492600  0.57750000  0.47222500  1
  H  87  1  0.98406700  0.58850400  0.51203300  1
  H  88  1  0.98530000  0.62328000  0.51143400  1
  H  89  1  0.04532100  0.58622500  0.51107400  1
  H  90  1  0.04666700  0.62088500  0.51097000  1
  H  91  1  0.01427100  0.57707100  0.55055500  1
  H  92  1  0.01438400  0.55108300  0.57666600  1
  H  93  1  0.01415000  0.44651800  0.55140400  1
  H  94  1  0.01410700  0.47272700  0.57744000  1
  H  95  1  0.04557300  0.51394100  0.58586300  1
  H  96  1  0.04707700  0.51472900  0.62050000  1
  H  97  1  0.98442900  0.51048500  0.58848100  1
  H  98  1  0.98579800  0.51176700  0.62322600  1
  H  99  1  0.99584800  0.49342700  0.65274500  1
  H  100  1  0.99867000  0.49446100  0.68733100  1
  H  101  1  0.04302400  0.53656500  0.68234700  1
  H  102  1  0.03985800  0.53594100  0.64796800  1
  H  103  1  0.98536600  0.43543800  0.50522500  1
  H  104  1  0.98619200  0.40067600  0.50651400  1
  H  105  1  0.03262100  0.37644700  0.54174500  1
  H  106  1  0.03273000  0.34213600  0.54567100  1
  H  107  1  0.99992900  0.33601700  0.49415100  1
  H  108  1  0.00010200  0.37052600  0.49005100  1
  H  109  1  0.04598200  0.40273800  0.52029700  1
  H  110  1  0.04504600  0.43744200  0.51910900  1
  H  111  1  0.03995100  0.64846700  0.48959200  1
  H  112  1  0.04288200  0.68283700  0.48928200  1
  H  113  1  0.99459000  0.65262400  0.53072400  1
  H  114  1  0.99721500  0.68723700  0.53005600  1
  H  119  1  0.01729500  0.31094100  0.53741100  1
  H  120  1  0.01860900  0.48889500  0.31017300  1
  H  121  1  0.03649000  0.71361600  0.50639300  1
  H  122  1  0.03778800  0.51770900  0.71311800  1
  H  195  1  0.34164300  0.03234700  0.47990800  1
  H  196  1  0.37599200  0.03197500  0.48310400  1
  H  197  1  0.33636300  0.99930900  0.53138000  1
  H  198  1  0.37094400  0.99926300  0.53476600  1
  H  199  1  0.40088600  0.98549200  0.51806500  1
  H  200  1  0.43566200  0.98480600  0.51907700  1
  H  201  1  0.40262800  0.04520700  0.50390800  1
  H  202  1  0.43733400  0.04439600  0.50477300  1
  H  203  1  0.44717100  0.01309300  0.47293200  1
  H  204  1  0.47328700  0.01332700  0.44696700  1
  H  205  1  0.49999100  0.01476500  0.49995500  1
  H  206  1  0.52412100  0.01304900  0.52415000  1
  H  207  1  0.44641800  0.01466000  0.55141400  1
  H  208  1  0.47249000  0.01435800  0.57754300  1
  H  209  1  0.51818400  0.98475200  0.58833300  1
  H  210  1  0.51738000  0.98548400  0.62311100  1
  H  211  1  0.50551500  0.04471900  0.58669800  1
  H  212  1  0.50489700  0.04557900  0.62141300  1
  H  213  1  0.55090800  0.01546800  0.57707400  1
  H  214  1  0.57697800  0.01535200  0.55108300  1
  H  215  1  0.55164300  0.01486200  0.44654500  1
  H  216  1  0.57773800  0.01479900  0.47274000  1
  H  217  1  0.58617900  0.04566600  0.51376200  1
  H  218  1  0.62082100  0.04716600  0.51454100  1
  H  219  1  0.58878900  0.98450100  0.51070200  1
  H  220  1  0.62352900  0.98586600  0.51197600  1
  H  221  1  0.65305800  0.99576200  0.49360000  1
  H  222  1  0.68764500  0.99853700  0.49467200  1
  H  223  1  0.68265800  0.04318000  0.53647300  1
  H  224  1  0.64827600  0.04006200  0.53581200  1
  H  225  1  0.51119400  0.98448200  0.43535100  1
  H  226  1  0.51225400  0.98583700  0.40059600  1
  H  227  1  0.53554800  0.04022400  0.37580100  1
  H  228  1  0.53616300  0.04335600  0.34142400  1
  H  229  1  0.49475300  0.99835300  0.33644700  1
  H  230  1  0.49373100  0.99555500  0.37103800  1
  H  231  1  0.51421600  0.04715600  0.40325200  1
  H  232  1  0.51363800  0.04567500  0.43789400  1
  H  233  1  0.48377300  0.03291300  0.64803300  1
  H  234  1  0.48056200  0.03327500  0.68238000  1
  H  235  1  0.53449400  0.99873600  0.65302000  1
  H  236  1  0.53107400  0.99876800  0.68759500  1
  H  241  1  0.51759000  0.03778400  0.31062500  1
  H  242  1  0.31039700  0.01854800  0.48899100  1
  H  243  1  0.48917700  0.01892400  0.71355800  1
  H  244  1  0.71346400  0.03775600  0.51778600  1
  H  317  1  0.47985600  0.34169100  0.03232200  1
  H  318  1  0.48307400  0.37603800  0.03195400  1
  H  319  1  0.53131600  0.33638400  0.99926700  1
  H  320  1  0.53472400  0.37096300  0.99922500  1
  H  321  1  0.51800300  0.40091200  0.98545600  1
  H  322  1  0.51903100  0.43568800  0.98477500  1
  H  323  1  0.50392400  0.40264700  0.04519100  1
  H  324  1  0.50480500  0.43735300  0.04438700  1
  H  325  1  0.47292700  0.44718000  0.01310700  1
  H  326  1  0.44696000  0.47329200  0.01334400  1
  H  327  1  0.49994900  0.50000200  0.01471300  1
  H  328  1  0.52415000  0.52412400  0.01306200  1
  H  329  1  0.55140700  0.44642600  0.01464400  1
  H  330  1  0.57754200  0.47249300  0.01434800  1
  H  331  1  0.58833100  0.51816200  0.98473300  1
  H  332  1  0.62310800  0.51736300  0.98546000  1
  H  333  1  0.58670100  0.50555300  0.04471200  1
  H  334  1  0.62141700  0.50494200  0.04557200  1
  H  335  1  0.57707500  0.55091100  0.01546600  1
  H  336  1  0.55108100  0.57697900  0.01538600  1
  H  337  1  0.44654100  0.55165300  0.01486300  1
  H  338  1  0.47274100  0.57774300  0.01483200  1
  H  339  1  0.51379100  0.58615800  0.04570700  1
  H  340  1  0.51456800  0.62080100  0.04721900  1
  H  341  1  0.51066700  0.58879100  0.98454400  1
  H  342  1  0.51193400  0.62353000  0.98592100  1
  H  343  1  0.49352400  0.65303700  0.99589200  1
  H  344  1  0.49457900  0.68762100  0.99869000  1
  H  345  1  0.53650500  0.68263500  0.04321600  1
  H  346  1  0.53585700  0.64825100  0.04007500  1
  H  347  1  0.43535300  0.51110100  0.98446700  1
  H  348  1  0.40059900  0.51216100  0.98580500  1
  H  349  1  0.37577800  0.53562800  0.04011000  1
  H  350  1  0.34139700  0.53624200  0.04322900  1
  H  351  1  0.33645100  0.49466700  0.99837400  1
  H  352  1  0.37104400  0.49364800  0.99559100  1
  H  353  1  0.40323100  0.51432000  0.04712000  1
  H  354  1  0.43787400  0.51374200  0.04565300  1
  H  355  1  0.64804800  0.48381600  0.03293400  1
  H  356  1  0.68239500  0.48060900  0.03328600  1
  H  357  1  0.65301400  0.53447500  0.99866400  1
  H  358  1  0.68758900  0.53105600  0.99868400  1
  H  363  1  0.31062200  0.51755900  0.03773200  1
  H  364  1  0.48892000  0.31044300  0.01852800  1
  H  365  1  0.71355700  0.48918800  0.01886400  1
  H  366  1  0.51775200  0.71342500  0.03786200  1
  H  439  1  0.54396300  0.99089500  0.84075000  1
  H  440  1  0.54035000  0.98993800  0.87509000  1
  H  441  1  0.49804000  0.03138000  0.83687200  1
  H  442  1  0.49481600  0.03094900  0.87146900  1
  H  443  1  0.48546600  0.01188600  0.90059400  1
  H  444  1  0.48418900  0.01263000  0.93535800  1
  H  445  1  0.54680400  0.01031100  0.90311800  1
  H  446  1  0.54539700  0.01049600  0.93774900  1
  H  447  1  0.51448000  0.97255500  0.94728700  1
  H  448  1  0.51456000  0.94669000  0.97354000  1
  H  449  1  0.51358700  0.99980700  0.00000600  1
  H  450  1  0.51401300  0.02413900  0.02398700  1
  H  451  1  0.51466800  0.05093800  0.94611900  1
  H  452  1  0.51472600  0.07727300  0.97207500  1
  H  453  1  0.48431700  0.08864900  0.01005400  1
  H  454  1  0.48570500  0.12341800  0.00951400  1
  H  455  1  0.54549800  0.08615900  0.01279400  1
  H  456  1  0.54697000  0.12078700  0.01283100  1
  H  457  1  0.51418800  0.07726500  0.05045700  1
  H  458  1  0.51422300  0.05140900  0.07670900  1
  H  459  1  0.51457600  0.94668800  0.05193200  1
  H  460  1  0.51465900  0.97302600  0.07788400  1
  H  461  1  0.54539800  0.01406000  0.08644600  1
  H  462  1  0.54659500  0.01436600  0.12108600  1
  H  463  1  0.48422700  0.01087700  0.08847400  1
  H  464  1  0.48528000  0.01174200  0.12323200  1
  H  465  1  0.49466100  0.99283500  0.15228700  1
  H  466  1  0.49763800  0.99221100  0.18688800  1
  H  467  1  0.54315100  0.03319700  0.18365100  1
  H  468  1  0.53975600  0.03438000  0.14925900  1
  H  469  1  0.48418100  0.93548400  0.01156200  1
  H  470  1  0.48528700  0.90072300  0.01227900  1
  H  471  1  0.54011500  0.87483300  0.03410500  1
  H  472  1  0.54349700  0.84044200  0.03303300  1
  H  473  1  0.49738700  0.83701000  0.99273300  1
  H  474  1  0.49441100  0.87161600  0.99324800  1
  H  475  1  0.54663700  0.90293300  0.01387900  1
  H  476  1  0.54539500  0.93757600  0.01372100  1
  H  477  1  0.54212900  0.14873000  0.99185300  1
  H  478  1  0.54568600  0.18306100  0.99288000  1
  H  479  1  0.49361100  0.15259400  0.02925800  1
  H  480  1  0.49683300  0.18719400  0.02975800  1
  H  485  1  0.53778100  0.81123300  0.00886500  1
  H  486  1  0.53872300  0.01361700  0.81131100  1
  H  487  1  0.53882500  0.21276600  0.01414000  1
  H  488  1  0.53774600  0.00846800  0.21269100  1
  H  561  1  0.84072000  0.54394500  0.99076700  1
  H  562  1  0.87505800  0.54032700  0.98975500  1
  H  563  1  0.83690400  0.49804000  0.03127900  1
  H  564  1  0.87149800  0.49481000  0.03079100  1
  H  565  1  0.90059600  0.48545200  0.01169400  1
  H  566  1  0.93536100  0.48417800  0.01241200  1
  H  567  1  0.90311400  0.54679000  0.01008800  1
  H  568  1  0.93774300  0.54538400  0.01024700  1
  H  569  1  0.94728300  0.51445300  0.97231500  1
  H  570  1  0.97353400  0.51453400  0.94644800  1
  H  571  1  0.00000500  0.51359900  0.99956400  1
  H  572  1  0.02398400  0.51402200  0.02389600  1
  H  573  1  0.94611800  0.51468000  0.05069700  1
  H  574  1  0.97207400  0.51473600  0.07703200  1
  H  575  1  0.00990400  0.48432000  0.08841700  1
  H  576  1  0.00936000  0.48572400  0.12318500  1
  H  577  1  0.01294000  0.54548700  0.08590500  1
  H  578  1  0.01297500  0.54697200  0.12053200  1
  H  579  1  0.05045500  0.51414900  0.07702200  1
  H  580  1  0.07670600  0.51419100  0.05116600  1
  H  581  1  0.05192800  0.51459500  0.94644500  1
  H  582  1  0.07788000  0.51467700  0.97278400  1
  H  583  1  0.08644000  0.54539500  0.01382600  1
  H  584  1  0.12108000  0.54659100  0.01416500  1
  H  585  1  0.08846900  0.48422400  0.01064100  1
  H  586  1  0.12322500  0.48527400  0.01154000  1
  H  587  1  0.15230300  0.49467300  0.99265500  1
  H  588  1  0.18690600  0.49765000  0.99207400  1
  H  589  1  0.18362100  0.54314100  0.03307700  1
  H  590  1  0.14922700  0.53974700  0.03421700  1
  H  591  1  0.01154400  0.48417200  0.93524600  1
  H  592  1  0.01225400  0.48526800  0.90048600  1
  H  593  1  0.03408000  0.54008300  0.87456600  1
  H  594  1  0.03301000  0.54344500  0.84017400  1
  H  595  1  0.99271400  0.49733000  0.83676400  1
  H  596  1  0.99322800  0.49437500  0.87137700  1
  H  597  1  0.01387700  0.54661700  0.90267600  1
  H  598  1  0.01372700  0.54538600  0.93731800  1
  H  599  1  0.99194800  0.54222600  0.14846400  1
  H  600  1  0.99296300  0.54578500  0.18279500  1
  H  601  1  0.02914900  0.49355500  0.15236200  1
  H  602  1  0.02963800  0.49678000  0.18696100  1
  H  607  1  0.00881000  0.53772400  0.81098100  1
  H  608  1  0.81132600  0.53872300  0.01354100  1
  H  609  1  0.01402600  0.53884500  0.21254600  1
  H  610  1  0.21268600  0.53775300  0.00837200  1
  H  683  1  0.97744600  0.84164800  0.52914100  1
  H  684  1  0.98132000  0.87597100  0.53003200  1
  H  685  1  0.03138000  0.83614600  0.50038100  1
  H  686  1  0.03538800  0.87069400  0.50149900  1
  H  687  1  0.01965400  0.90081200  0.48660300  1
  H  688  1  0.02074700  0.93557600  0.48611200  1
  H  689  1  0.00156600  0.90233300  0.54524500  1
  H  690  1  0.00258000  0.93706100  0.54464300  1
  H  691  1  0.97277500  0.94720400  0.51206900  1
  H  692  1  0.94688400  0.97339900  0.51211100  1
  H  693  1  0.99984000  0.99986600  0.51629800  1
  H  694  1  0.02411200  0.02404400  0.51647400  1
  H  695  1  0.05113600  0.94629100  0.51784800  1
  H  696  1  0.07732300  0.97235000  0.51755500  1
  H  697  1  0.08851200  0.00919400  0.48484200  1
  H  698  1  0.12329300  0.00865300  0.48616000  1
  H  699  1  0.08618600  0.01396500  0.54590400  1
  H  700  1  0.12082000  0.01393600  0.54729200  1
  H  701  1  0.07704400  0.05049300  0.51183200  1
  H  702  1  0.05116500  0.07669300  0.51189500  1
  H  703  1  0.94662600  0.05158700  0.51741400  1
  H  704  1  0.97281600  0.07763700  0.51777700  1
  H  705  1  0.02160800  0.08691700  0.54463700  1
  H  706  1  0.02286200  0.12164700  0.54509400  1
  H  707  1  0.00315000  0.08829200  0.48619500  1
  H  708  1  0.00445800  0.12304400  0.48655100  1
  H  709  1  0.98889000  0.15323900  0.50149500  1
  H  710  1  0.99308400  0.18774500  0.50003100  1
  H  711  1  0.04729000  0.18220700  0.52825400  1
  H  712  1  0.04321100  0.14789200  0.52952500  1
  H  713  1  0.93561800  0.01259600  0.48466900  1
  H  714  1  0.90084500  0.01332900  0.48571000  1
  H  715  1  0.87493400  0.03322500  0.54115500  1
  H  716  1  0.84053500  0.03219300  0.54444600  1
  H  717  1  0.83701300  0.99341100  0.49705400  1
  H  718  1  0.87163200  0.99390200  0.49413200  1
  H  719  1  0.90289000  0.01246700  0.54707600  1
  H  720  1  0.93753300  0.01223200  0.54592600  1
  H  721  1  0.14863500  0.99253700  0.54292700  1
  H  722  1  0.18297500  0.99353700  0.54641900  1
  H  723  1  0.15255600  0.02873700  0.49351400  1
  H  724  1  0.18716000  0.02923300  0.49669700  1
  H  729  1  0.81118900  0.00882500  0.53801300  1
  H  730  1  0.98685700  0.81115400  0.51165000  1
  H  731  1  0.21277700  0.01422700  0.53905700  1
  H  732  1  0.03773900  0.21253300  0.50976000  1
  H  743  1  0.03132200  0.53652100  0.24364000  1
  H  744  1  0.03134700  0.53781100  0.27839300  1
  H  749  1  0.96651000  0.46138000  0.29944200  1
  H  750  1  0.94669400  0.43746400  0.28268700  1
  H  751  1  0.94664900  0.43599500  0.24741200  1
  H  752  1  0.96640800  0.45842500  0.22866100  1
  H  765  1  0.99116700  0.53322600  0.77983100  1
  H  766  1  0.99030300  0.53378900  0.74504600  1
  H  771  1  0.06038300  0.46215000  0.72399600  1
  H  772  1  0.08209800  0.43995200  0.74075900  1
  H  773  1  0.08330200  0.43952600  0.77604100  1
  H  774  1  0.06278500  0.46126600  0.79479100  1
  H  787  1  0.24391000  0.03132300  0.53672900  1
  H  788  1  0.27866400  0.03133000  0.53795800  1
  H  793  1  0.29954600  0.96654800  0.46143700  1
  H  794  1  0.28273800  0.94676200  0.43753300  1
  H  795  1  0.24746200  0.94673800  0.43612600  1
  H  796  1  0.22876000  0.96648700  0.45860700  1
  H  809  1  0.78009100  0.99108800  0.53343500  1
  H  810  1  0.74530400  0.99024400  0.53394100  1
  H  815  1  0.72441300  0.06029700  0.46223000  1
  H  816  1  0.74122700  0.08199300  0.44005100  1
  H  817  1  0.77651100  0.08317400  0.43968000  1
  H  818  1  0.79521300  0.06265400  0.46145800  1
  H  831  1  0.53654600  0.24391500  0.03125900  1
  H  832  1  0.53783700  0.27866700  0.03126700  1
  H  837  1  0.46138800  0.29969000  0.96644600  1
  H  838  1  0.43746400  0.28292800  0.94664600  1
  H  839  1  0.43599300  0.24765400  0.94661700  1
  H  840  1  0.45843000  0.22890900  0.96637700  1
  H  853  1  0.53327800  0.78009000  0.99120500  1
  H  854  1  0.53384400  0.74530200  0.99035800  1
  H  859  1  0.46216100  0.72428400  0.06040300  1
  H  860  1  0.43995000  0.74105700  0.08209900  1
  H  861  1  0.43952300  0.77633900  0.08328900  1
  H  862  1  0.46127600  0.79508200  0.06277600  1
  H  875  1  0.53664800  0.03104900  0.78017600  1
  H  876  1  0.53807600  0.03109400  0.74542000  1
  H  881  1  0.46131700  0.96678200  0.72400000  1
  H  882  1  0.43720500  0.94710100  0.74063400  1
  H  883  1  0.43559000  0.94702400  0.77590100  1
  H  884  1  0.45806900  0.96661900  0.79476900  1
  H  897  1  0.53329700  0.99109700  0.24396300  1
  H  898  1  0.53381000  0.99026200  0.27874900  1
  H  903  1  0.46216600  0.06040000  0.29962300  1
  H  904  1  0.44001400  0.08211800  0.28279900  1
  H  905  1  0.43965500  0.08329400  0.24751500  1
  H  906  1  0.46141500  0.06274400  0.22882400  1
  H  919  1  0.03371000  0.24334000  0.49182600  1
  H  920  1  0.03460700  0.27809000  0.49045100  1
  H  925  1  0.96241300  0.30083800  0.55942200  1
  H  926  1  0.93986500  0.28461000  0.58118200  1
  H  927  1  0.93910000  0.24935500  0.58291400  1
  H  928  1  0.96085700  0.23009800  0.56289000  1
  H  941  1  0.98892700  0.78000100  0.49514100  1
  H  942  1  0.98764300  0.74526000  0.49503800  1
  H  947  1  0.06456200  0.72400900  0.55919900  1
  H  948  1  0.08861500  0.74069200  0.57891000  1
  H  949  1  0.09007700  0.77596700  0.57908200  1
  H  950  1  0.06749900  0.79479000  0.55956000  1
  H  963  1  0.24396600  0.53330700  0.99101300  1
  H  964  1  0.27875200  0.53382400  0.99019800  1
  H  969  1  0.29959100  0.46217200  0.06034100  1
  H  970  1  0.28275700  0.44002000  0.08204800  1
  H  971  1  0.24747200  0.43965800  0.08320300  1
  H  972  1  0.22879000  0.46141800  0.06264400  1
  H  985  1  0.78018700  0.53665600  0.03096700  1
  H  986  1  0.74543400  0.53808900  0.03102600  1
  H  991  1  0.72397800  0.46132200  0.96673400  1
  H  992  1  0.74059900  0.43720500  0.94705000  1
  H  993  1  0.77586800  0.43558900  0.94695600  1
  H  994  1  0.79474600  0.45807100  0.96653700  1
  H  1069  1  0.14896000  0.59630700  0.45773400  1
  H  1070  1  0.14863500  0.59954800  0.49208000  1
  H  1071  1  0.11554700  0.64753900  0.45245200  1
  H  1072  1  0.11554500  0.65097300  0.48702800  1
  H  1073  1  0.10191400  0.63412800  0.51696500  1
  H  1074  1  0.10123100  0.63512100  0.55173800  1
  H  1075  1  0.16176500  0.62053300  0.51867600  1
  H  1076  1  0.16095900  0.62138700  0.55339000  1
  H  1077  1  0.13065000  0.58922100  0.56318900  1
  H  1078  1  0.13112000  0.56326100  0.58924900  1
  H  1079  1  0.13049200  0.61621800  0.61604000  1
  H  1080  1  0.12996300  0.64042200  0.64014900  1
  H  1081  1  0.13155400  0.66770000  0.56246300  1
  H  1082  1  0.13126800  0.69384200  0.58856700  1
  H  1083  1  0.10040900  0.70484600  0.62837500  1
  H  1084  1  0.10164200  0.73962200  0.62777600  1
  H  1085  1  0.16166300  0.70256700  0.62741600  1
  H  1086  1  0.16300900  0.73722700  0.62731200  1
  H  1087  1  0.13061300  0.69341300  0.66689700  1
  H  1088  1  0.13072600  0.66742500  0.69300800  1
  H  1089  1  0.13049200  0.56286000  0.66774600  1
  H  1090  1  0.13044900  0.58906900  0.69378200  1
  H  1091  1  0.16191500  0.63028300  0.70220500  1
  H  1092  1  0.16341900  0.63107100  0.73684200  1
  H  1093  1  0.10077100  0.62682700  0.70482300  1
  H  1094  1  0.10214000  0.62810900  0.73956800  1
  H  1095  1  0.11219000  0.60976900  0.76908700  1
  H  1096  1  0.11501200  0.61080300  0.80367300  1
  H  1097  1  0.15936600  0.65290700  0.79868900  1
  H  1098  1  0.15620000  0.65228300  0.76431000  1
  H  1099  1  0.10170800  0.55178000  0.62156700  1
  H  1100  1  0.10253400  0.51701800  0.62285600  1
  H  1101  1  0.14896300  0.49278900  0.65808700  1
  H  1102  1  0.14907200  0.45847800  0.66201300  1
  H  1103  1  0.11627100  0.45235900  0.61049300  1
  H  1104  1  0.11644400  0.48686800  0.60639300  1
  H  1105  1  0.16232400  0.51908000  0.63663900  1
  H  1106  1  0.16138800  0.55378400  0.63545100  1
  H  1107  1  0.15629300  0.76480900  0.60593400  1
  H  1108  1  0.15922400  0.79917900  0.60562400  1
  H  1109  1  0.11093200  0.76896600  0.64706600  1
  H  1110  1  0.11355700  0.80357900  0.64639800  1
  H  1115  1  0.13363700  0.42728300  0.65375300  1
  H  1116  1  0.13495100  0.60523700  0.42651500  1
  H  1117  1  0.15283200  0.82995800  0.62273500  1
  H  1118  1  0.15413000  0.63405100  0.82946000  1
  H  1191  1  0.45798500  0.14868900  0.59625000  1
  H  1192  1  0.49233400  0.14831700  0.59944600  1
  H  1193  1  0.45270500  0.11565100  0.64772200  1
  H  1194  1  0.48728600  0.11560500  0.65110800  1
  H  1195  1  0.51722800  0.10183400  0.63440700  1
  H  1196  1  0.55200400  0.10114800  0.63541900  1
  H  1197  1  0.51897000  0.16154900  0.62025000  1
  H  1198  1  0.55367600  0.16073800  0.62111500  1
  H  1199  1  0.56351300  0.12943500  0.58927400  1
  H  1200  1  0.58962900  0.12966900  0.56330900  1
  H  1201  1  0.61633300  0.13110700  0.61629700  1
  H  1202  1  0.64046300  0.12939100  0.64049200  1
  H  1203  1  0.56276000  0.13100200  0.66775600  1
  H  1204  1  0.58883200  0.13070000  0.69388500  1
  H  1205  1  0.63452600  0.10109400  0.70467500  1
  H  1206  1  0.63372200  0.10182600  0.73945300  1
  H  1207  1  0.62185700  0.16106100  0.70304000  1
  H  1208  1  0.62123900  0.16192100  0.73775500  1
  H  1209  1  0.66725000  0.13181000  0.69341600  1
  H  1210  1  0.69332000  0.13169400  0.66742500  1
  H  1211  1  0.66798500  0.13120400  0.56288700  1
  H  1212  1  0.69408000  0.13114100  0.58908200  1
  H  1213  1  0.70252100  0.16200800  0.63010400  1
  H  1214  1  0.73716300  0.16350800  0.63088300  1
  H  1215  1  0.70513100  0.10084300  0.62704400  1
  H  1216  1  0.73987100  0.10220800  0.62831800  1
  H  1217  1  0.76940000  0.11210400  0.60994200  1
  H  1218  1  0.80398700  0.11487900  0.61101400  1
  H  1219  1  0.79900000  0.15952200  0.65281500  1
  H  1220  1  0.76461800  0.15640400  0.65215400  1
  H  1221  1  0.62753600  0.10082400  0.55169300  1
  H  1222  1  0.62859600  0.10217900  0.51693800  1
  H  1223  1  0.65189000  0.15656600  0.49214300  1
  H  1224  1  0.65250500  0.15969800  0.45776600  1
  H  1225  1  0.61109500  0.11469500  0.45278900  1
  H  1226  1  0.61007300  0.11189700  0.48738000  1
  H  1227  1  0.63055800  0.16349800  0.51959400  1
  H  1228  1  0.62998000  0.16201700  0.55423600  1
  H  1229  1  0.60011500  0.14925500  0.76437500  1
  H  1230  1  0.59690400  0.14961700  0.79872200  1
  H  1231  1  0.65083600  0.11507800  0.76936200  1
  H  1232  1  0.64741600  0.11511000  0.80393700  1
  H  1237  1  0.63393200  0.15412600  0.42696700  1
  H  1238  1  0.42673900  0.13489000  0.60533300  1
  H  1239  1  0.60551900  0.13526600  0.82990000  1
  H  1240  1  0.82980600  0.15409800  0.63412800  1
  H  1313  1  0.59619800  0.45803300  0.14866400  1
  H  1314  1  0.59941600  0.49238000  0.14829600  1
  H  1315  1  0.64765800  0.45272600  0.11560900  1
  H  1316  1  0.65106600  0.48730500  0.11556700  1
  H  1317  1  0.63434500  0.51725400  0.10179800  1
  H  1318  1  0.63537300  0.55203000  0.10111700  1
  H  1319  1  0.62026600  0.51898900  0.16153300  1
  H  1320  1  0.62114700  0.55369500  0.16072900  1
  H  1321  1  0.58926900  0.56352200  0.12944900  1
  H  1322  1  0.56330200  0.58963400  0.12968600  1
  H  1323  1  0.61629100  0.61634400  0.13105500  1
  H  1324  1  0.64049200  0.64046600  0.12940400  1
  H  1325  1  0.66774900  0.56276800  0.13098600  1
  H  1326  1  0.69388400  0.58883500  0.13069000  1
  H  1327  1  0.70467300  0.63450400  0.10107500  1
  H  1328  1  0.73945000  0.63370500  0.10180200  1
  H  1329  1  0.70304300  0.62189500  0.16105400  1
  H  1330  1  0.73775900  0.62128400  0.16191400  1
  H  1331  1  0.69341700  0.66725300  0.13180800  1
  H  1332  1  0.66742300  0.69332100  0.13172800  1
  H  1333  1  0.56288300  0.66799500  0.13120500  1
  H  1334  1  0.58908300  0.69408500  0.13117400  1
  H  1335  1  0.63013300  0.70250000  0.16204900  1
  H  1336  1  0.63091000  0.73714300  0.16356100  1
  H  1337  1  0.62700900  0.70513300  0.10088600  1
  H  1338  1  0.62827600  0.73987200  0.10226300  1
  H  1339  1  0.60986600  0.76937900  0.11223400  1
  H  1340  1  0.61092100  0.80396300  0.11503200  1
  H  1341  1  0.65284700  0.79897700  0.15955800  1
  H  1342  1  0.65219900  0.76459300  0.15641700  1
  H  1343  1  0.55169500  0.62744300  0.10080900  1
  H  1344  1  0.51694100  0.62850300  0.10214700  1
  H  1345  1  0.49212000  0.65197000  0.15645200  1
  H  1346  1  0.45773900  0.65258400  0.15957100  1
  H  1347  1  0.45279300  0.61100900  0.11471600  1
  H  1348  1  0.48738600  0.60999000  0.11193300  1
  H  1349  1  0.51957300  0.63066200  0.16346200  1
  H  1350  1  0.55421600  0.63008400  0.16199500  1
  H  1351  1  0.76439000  0.60015800  0.14927600  1
  H  1352  1  0.79873700  0.59695100  0.14962800  1
  H  1353  1  0.76935600  0.65081700  0.11500600  1
  H  1354  1  0.80393100  0.64739800  0.11502600  1
  H  1359  1  0.42696400  0.63390100  0.15407400  1
  H  1360  1  0.60526200  0.42678500  0.13487000  1
  H  1361  1  0.82989900  0.60553000  0.13520600  1
  H  1362  1  0.63409400  0.82976700  0.15420400  1
  H  1435  1  0.66030500  0.10723700  0.95709200  1
  H  1436  1  0.65669200  0.10628000  0.99143200  1
  H  1437  1  0.61438200  0.14772200  0.95321400  1
  H  1438  1  0.61115800  0.14729100  0.98781100  1
  H  1439  1  0.60180800  0.12822800  0.01693560  1
  H  1440  1  0.60053100  0.12897200  0.05169960  1
  H  1441  1  0.66314600  0.12665300  0.01945960  1
  H  1442  1  0.66173900  0.12683800  0.05409060  1
  H  1443  1  0.63082200  0.08889660  0.06362860  1
  H  1444  1  0.63090200  0.06303160  0.08988160  1
  H  1445  1  0.62992900  0.11614900  0.11634800  1
  H  1446  1  0.63035500  0.14048100  0.14032900  1
  H  1447  1  0.63101000  0.16728000  0.06246060  1
  H  1448  1  0.63106800  0.19361500  0.08841660  1
  H  1449  1  0.60065900  0.20499100  0.12639600  1
  H  1450  1  0.60204700  0.23976000  0.12585600  1
  H  1451  1  0.66184000  0.20250100  0.12913600  1
  H  1452  1  0.66331200  0.23712900  0.12917300  1
  H  1453  1  0.63053000  0.19360700  0.16679900  1
  H  1454  1  0.63056500  0.16775100  0.19305100  1
  H  1455  1  0.63091800  0.06302960  0.16827400  1
  H  1456  1  0.63100100  0.08936760  0.19422600  1
  H  1457  1  0.66174000  0.13040200  0.20278800  1
  H  1458  1  0.66293700  0.13070800  0.23742800  1
  H  1459  1  0.60056900  0.12721900  0.20481600  1
  H  1460  1  0.60162200  0.12808400  0.23957400  1
  H  1461  1  0.61100300  0.10917700  0.26862900  1
  H  1462  1  0.61398000  0.10855300  0.30323000  1
  H  1463  1  0.65949300  0.14953900  0.29999300  1
  H  1464  1  0.65609800  0.15072200  0.26560100  1
  H  1465  1  0.60052300  0.05182560  0.12790400  1
  H  1466  1  0.60162900  0.01706460  0.12862100  1
  H  1467  1  0.65645700  0.99117500  0.15044700  1
  H  1468  1  0.65983900  0.95678400  0.14937500  1
  H  1469  1  0.61372900  0.95335200  0.10907500  1
  H  1470  1  0.61075300  0.98795800  0.10959000  1
  H  1471  1  0.66297900  0.01927460  0.13022100  1
  H  1472  1  0.66173700  0.05391760  0.13006300  1
  H  1473  1  0.65847100  0.26507200  0.10819500  1
  H  1474  1  0.66202800  0.29940300  0.10922200  1
  H  1475  1  0.60995300  0.26893600  0.14560000  1
  H  1476  1  0.61317500  0.30353600  0.14610000  1
  H  1481  1  0.65412300  0.92757500  0.12520700  1
  H  1482  1  0.65506500  0.12995900  0.92765300  1
  H  1483  1  0.65516700  0.32910800  0.13048200  1
  H  1484  1  0.65408800  0.12481000  0.32903300  1
  H  1557  1  0.95706200  0.66028700  0.10710900  1
  H  1558  1  0.99140000  0.65666900  0.10609700  1
  H  1559  1  0.95324600  0.61438200  0.14762100  1
  H  1560  1  0.98784000  0.61115200  0.14713300  1
  H  1561  1  0.01693760  0.60179400  0.12803600  1
  H  1562  1  0.05170260  0.60052000  0.12875400  1
  H  1563  1  0.01945560  0.66313200  0.12643000  1
  H  1564  1  0.05408460  0.66172600  0.12658900  1
  H  1565  1  0.06362460  0.63079500  0.08865660  1
  H  1566  1  0.08987560  0.63087600  0.06278960  1
  H  1567  1  0.11634700  0.62994100  0.11590600  1
  H  1568  1  0.14032600  0.63036400  0.14023800  1
  H  1569  1  0.06245960  0.63102200  0.16703900  1
  H  1570  1  0.08841560  0.63107800  0.19337400  1
  H  1571  1  0.12624600  0.60066200  0.20475900  1
  H  1572  1  0.12570200  0.60206600  0.23952700  1
  H  1573  1  0.12928200  0.66182900  0.20224700  1
  H  1574  1  0.12931700  0.66331400  0.23687400  1
  H  1575  1  0.16679700  0.63049100  0.19336400  1
  H  1576  1  0.19304800  0.63053300  0.16750800  1
  H  1577  1  0.16827000  0.63093700  0.06278660  1
  H  1578  1  0.19422200  0.63101900  0.08912560  1
  H  1579  1  0.20278200  0.66173700  0.13016800  1
  H  1580  1  0.23742200  0.66293300  0.13050700  1
  H  1581  1  0.20481100  0.60056600  0.12698300  1
  H  1582  1  0.23956700  0.60161600  0.12788200  1
  H  1583  1  0.26864500  0.61101500  0.10899700  1
  H  1584  1  0.30324800  0.61399200  0.10841600  1
  H  1585  1  0.29996300  0.65948300  0.14941900  1
  H  1586  1  0.26556900  0.65608900  0.15055900  1
  H  1587  1  0.12788600  0.60051400  0.05158760  1
  H  1588  1  0.12859600  0.60161000  0.01682760  1
  H  1589  1  0.15042200  0.65642500  0.99090800  1
  H  1590  1  0.14935200  0.65978700  0.95651600  1
  H  1591  1  0.10905600  0.61367200  0.95310600  1
  H  1592  1  0.10957000  0.61071700  0.98771900  1
  H  1593  1  0.13021900  0.66295900  0.01901760  1
  H  1594  1  0.13006900  0.66172800  0.05365960  1
  H  1595  1  0.10829000  0.65856800  0.26480600  1
  H  1596  1  0.10930500  0.66212700  0.29913700  1
  H  1597  1  0.14549100  0.60989700  0.26870400  1
  H  1598  1  0.14598000  0.61312200  0.30330300  1
  H  1603  1  0.12515200  0.65406600  0.92732300  1
  H  1604  1  0.92766800  0.65506500  0.12988300  1
  H  1605  1  0.13036800  0.65518700  0.32888800  1
  H  1606  1  0.32902800  0.65409500  0.12471400  1
  H  1679  1  0.09378760  0.95799000  0.64548300  1
  H  1680  1  0.09766160  0.99231300  0.64637400  1
  H  1681  1  0.14772200  0.95248800  0.61672300  1
  H  1682  1  0.15173000  0.98703600  0.61784100  1
  H  1683  1  0.13599600  0.01715360  0.60294500  1
  H  1684  1  0.13708900  0.05191760  0.60245400  1
  H  1685  1  0.11790800  0.01867460  0.66158700  1
  H  1686  1  0.11892200  0.05340260  0.66098500  1
  H  1687  1  0.08911660  0.06354560  0.62841100  1
  H  1688  1  0.06322560  0.08974060  0.62845300  1
  H  1689  1  0.11618200  0.11620800  0.63264000  1
  H  1690  1  0.14045400  0.14038600  0.63281600  1
  H  1691  1  0.16747800  0.06263260  0.63419000  1
  H  1692  1  0.19366500  0.08869160  0.63389700  1
  H  1693  1  0.20485400  0.12553600  0.60118400  1
  H  1694  1  0.23963500  0.12499500  0.60250200  1
  H  1695  1  0.20252800  0.13030700  0.66224600  1
  H  1696  1  0.23716200  0.13027800  0.66363400  1
  H  1697  1  0.19338600  0.16683500  0.62817400  1
  H  1698  1  0.16750700  0.19303500  0.62823700  1
  H  1699  1  0.06296760  0.16792900  0.63375600  1
  H  1700  1  0.08915760  0.19397900  0.63411900  1
  H  1701  1  0.13795000  0.20325900  0.66097900  1
  H  1702  1  0.13920400  0.23798900  0.66143600  1
  H  1703  1  0.11949200  0.20463400  0.60253700  1
  H  1704  1  0.12080000  0.23938600  0.60289300  1
  H  1705  1  0.10523200  0.26958100  0.61783700  1
  H  1706  1  0.10942600  0.30408700  0.61637300  1
  H  1707  1  0.16363200  0.29854900  0.64459600  1
  H  1708  1  0.15955300  0.26423400  0.64586700  1
  H  1709  1  0.05195960  0.12893800  0.60101100  1
  H  1710  1  0.01718660  0.12967100  0.60205200  1
  H  1711  1  0.99127600  0.14956700  0.65749700  1
  H  1712  1  0.95687700  0.14853500  0.66078800  1
  H  1713  1  0.95335500  0.10975300  0.61339600  1
  H  1714  1  0.98797400  0.11024400  0.61047400  1
  H  1715  1  0.01923160  0.12880900  0.66341800  1
  H  1716  1  0.05387460  0.12857400  0.66226800  1
  H  1717  1  0.26497700  0.10887900  0.65926900  1
  H  1718  1  0.29931700  0.10987900  0.66276100  1
  H  1719  1  0.26889800  0.14507900  0.60985600  1
  H  1720  1  0.30350200  0.14557500  0.61303900  1
  H  1725  1  0.92753100  0.12516700  0.65435500  1
  H  1726  1  0.10319900  0.92749600  0.62799200  1
  H  1727  1  0.32911900  0.13056900  0.65539900  1
  H  1728  1  0.15408100  0.32887500  0.62610200  1
  H  1739  1  0.14766400  0.65286300  0.35998200  1
  H  1740  1  0.14768900  0.65415300  0.39473500  1
  H  1745  1  0.08285160  0.57772200  0.41578400  1
  H  1746  1  0.06303560  0.55380600  0.39902900  1
  H  1747  1  0.06299060  0.55233700  0.36375400  1
  H  1748  1  0.08274960  0.57476700  0.34500300  1
  H  1761  1  0.10750900  0.64956800  0.89617300  1
  H  1762  1  0.10664500  0.65013100  0.86138800  1
  H  1767  1  0.17672500  0.57849200  0.84033800  1
  H  1768  1  0.19844000  0.55629400  0.85710100  1
  H  1769  1  0.19964400  0.55586800  0.89238300  1
  H  1770  1  0.17912700  0.57760800  0.91113300  1
  H  1783  1  0.36025200  0.14766500  0.65307100  1
  H  1784  1  0.39500600  0.14767200  0.65430000  1
  H  1789  1  0.41588800  0.08288960  0.57777900  1
  H  1790  1  0.39908000  0.06310360  0.55387500  1
  H  1791  1  0.36380400  0.06307960  0.55246800  1
  H  1792  1  0.34510200  0.08282860  0.57494900  1
  H  1805  1  0.89643300  0.10743000  0.64977700  1
  H  1806  1  0.86164600  0.10658600  0.65028300  1
  H  1811  1  0.84075500  0.17663900  0.57857200  1
  H  1812  1  0.85756900  0.19833500  0.55639300  1
  H  1813  1  0.89285300  0.19951600  0.55602200  1
  H  1814  1  0.91155500  0.17899600  0.57780000  1
  H  1827  1  0.65288800  0.36025700  0.14760100  1
  H  1828  1  0.65417900  0.39500900  0.14760900  1
  H  1833  1  0.57773000  0.41603200  0.08278760  1
  H  1834  1  0.55380600  0.39927000  0.06298760  1
  H  1835  1  0.55233500  0.36399600  0.06295860  1
  H  1836  1  0.57477200  0.34525100  0.08271860  1
  H  1849  1  0.64962000  0.89643200  0.10754700  1
  H  1850  1  0.65018600  0.86164400  0.10670000  1
  H  1855  1  0.57850300  0.84062600  0.17674500  1
  H  1856  1  0.55629200  0.85739900  0.19844100  1
  H  1857  1  0.55586500  0.89268100  0.19963100  1
  H  1858  1  0.57761800  0.91142400  0.17911800  1
  H  1871  1  0.65299000  0.14739100  0.89651800  1
  H  1872  1  0.65441800  0.14743600  0.86176200  1
  H  1877  1  0.57765900  0.08312360  0.84034200  1
  H  1878  1  0.55354700  0.06344260  0.85697600  1
  H  1879  1  0.55193200  0.06336560  0.89224300  1
  H  1880  1  0.57441100  0.08296060  0.91111100  1
  H  1893  1  0.64963900  0.10743900  0.36030500  1
  H  1894  1  0.65015200  0.10660400  0.39509100  1
  H  1899  1  0.57850800  0.17674200  0.41596500  1
  H  1900  1  0.55635600  0.19846000  0.39914100  1
  H  1901  1  0.55599700  0.19963600  0.36385700  1
  H  1902  1  0.57775700  0.17908600  0.34516600  1
  H  1915  1  0.15005200  0.35968200  0.60816800  1
  H  1916  1  0.15094900  0.39443200  0.60679300  1
  H  1921  1  0.07875460  0.41718000  0.67576400  1
  H  1922  1  0.05620660  0.40095200  0.69752400  1
  H  1923  1  0.05544160  0.36569700  0.69925600  1
  H  1924  1  0.07719860  0.34644000  0.67923200  1
  H  1937  1  0.10526900  0.89634300  0.61148300  1
  H  1938  1  0.10398500  0.86160200  0.61138000  1
  H  1943  1  0.18090400  0.84035100  0.67554100  1
  H  1944  1  0.20495700  0.85703400  0.69525200  1
  H  1945  1  0.20641900  0.89230900  0.69542400  1
  H  1946  1  0.18384100  0.91113200  0.67590200  1
  H  1959  1  0.36030800  0.64964900  0.10735500  1
  H  1960  1  0.39509400  0.65016600  0.10654000  1
  H  1965  1  0.41593300  0.57851400  0.17668300  1
  H  1966  1  0.39909900  0.55636200  0.19839000  1
  H  1967  1  0.36381400  0.55600000  0.19954500  1
  H  1968  1  0.34513200  0.57776000  0.17898600  1
  H  1981  1  0.89652900  0.65299800  0.14730900  1
  H  1982  1  0.86177600  0.65443100  0.14736800  1
  H  1987  1  0.84032000  0.57766400  0.08307560  1
  H  1988  1  0.85694100  0.55354700  0.06339160  1
  H  1989  1  0.89221000  0.55193100  0.06329760  1
  H  1990  1  0.91108800  0.57441300  0.08287860  1
  C  1  1  0.01428400  0.47570400  0.46143900  1
  C  2  1  0.01452200  0.46152200  0.47567000  1
  C  3  1  0.01434400  0.47062400  0.49384000  1
  C  5  1  0.01421900  0.49391500  0.47047000  1
  C  6  1  0.01421600  0.51212100  0.46048000  1
  C  7  1  0.01413200  0.53055300  0.46991600  1
  C  9  1  0.01402600  0.55371400  0.49303600  1
  C  10  1  0.01453400  0.56288600  0.47491800  1
  C  11  1  0.01466100  0.54866700  0.46072800  1
  C  12  1  0.01393700  0.56319400  0.51143600  1
  C  13  1  0.01389300  0.55332200  0.52967500  1
  C  15  1  0.01404700  0.53007700  0.55302400  1
  C  16  1  0.01419400  0.54828000  0.56206800  1
  C  17  1  0.01411300  0.56245700  0.54782800  1
  C  18  1  0.01414800  0.51187900  0.56298500  1
  C  19  1  0.01416600  0.49344600  0.55356800  1
  C  21  1  0.01439400  0.47023300  0.53047900  1
  C  22  1  0.01425500  0.46112000  0.54864300  1
  C  23  1  0.01420800  0.47536500  0.56281200  1
  C  24  1  0.01451900  0.46071000  0.51207800  1
  C  25  1  0.01512600  0.43982400  0.51200800  1
  C  26  1  0.03257100  0.42982700  0.51627200  1
  C  27  1  0.03304200  0.40934500  0.51708200  1
  C  28  1  0.01618600  0.39801100  0.51350000  1
  C  29  1  0.99885300  0.40815000  0.50880400  1
  C  30  1  0.99828100  0.42866100  0.50819900  1
  C  31  1  0.01652300  0.37716500  0.51536300  1
  C  32  1  0.00708300  0.36476000  0.50185900  1
  C  33  1  0.00716400  0.34433600  0.50414900  1
  C  34  1  0.01656200  0.33544400  0.52017800  1
  C  35  1  0.02593800  0.34783000  0.53369700  1
  C  36  1  0.02601800  0.36817300  0.53128100  1
  C  37  1  0.01486100  0.51212300  0.58383200  1
  C  38  1  0.03287100  0.51341400  0.59361200  1
  C  39  1  0.03367200  0.51406700  0.61408300  1
  C  40  1  0.01657800  0.51347800  0.62564300  1
  C  41  1  0.99859400  0.51194700  0.61564200  1
  C  42  1  0.99771700  0.51133600  0.59513900  1
  C  43  1  0.01757300  0.51453100  0.64656900  1
  C  44  1  0.03104700  0.52700000  0.65595300  1
  C  45  1  0.03280300  0.52752900  0.67636000  1
  C  46  1  0.02098900  0.51576900  0.68842300  1
  C  47  1  0.00721000  0.50355600  0.67921100  1
  C  48  1  0.00552800  0.50300600  0.65873400  1
  C  49  1  0.01456800  0.58403500  0.51155400  1
  C  50  1  0.99734000  0.59523900  0.51185400  1
  C  51  1  0.99813000  0.61575300  0.51167100  1
  C  52  1  0.01611200  0.62584500  0.51105400  1
  C  53  1  0.03328400  0.61438900  0.51097100  1
  C  54  1  0.03256800  0.59390800  0.51121000  1
  C  55  1  0.01704200  0.64677200  0.51030500  1
  C  56  1  0.03083800  0.65632700  0.49834100  1
  C  57  1  0.03245900  0.67673900  0.49800900  1
  C  58  1  0.02023700  0.68865700  0.50951100  1
  C  59  1  0.00614300  0.67925200  0.52121800  1
  C  60  1  0.00456400  0.65876100  0.52154800  1
  C  61  1  0.01466500  0.51193800  0.43959800  1
  C  62  1  0.99776500  0.51581100  0.42854200  1
  C  63  1  0.03208500  0.50782400  0.42950600  1
  C  64  1  0.03247900  0.50722800  0.40901700  1
  C  65  1  0.01557300  0.51089300  0.39777800  1
  C  66  1  0.99825500  0.51539400  0.40802500  1
  C  67  1  0.01588300  0.50937900  0.37690600  1
  C  68  1  0.00630900  0.52299500  0.36472500  1
  C  69  1  0.00649500  0.52109900  0.34425900  1
  C  70  1  0.01612800  0.50536300  0.33509200  1
  C  71  1  0.02561900  0.49173000  0.34726800  1
  C  72  1  0.02557700  0.49373900  0.36765000  1
  C  115  1  0.01593000  0.31542300  0.52370000  1
  C  116  1  0.02423600  0.51554200  0.70846700  1
  C  117  1  0.02324600  0.70875900  0.50972500  1
  C  118  1  0.01585200  0.50228600  0.31497800  1
  C  123  1  0.46175700  0.01350700  0.47575600  1
  C  124  1  0.47600300  0.01361200  0.46158000  1
  C  125  1  0.49415000  0.01401400  0.47071300  1
  C  127  1  0.47076900  0.01399200  0.49397500  1
  C  128  1  0.46077400  0.01410500  0.51217500  1
  C  129  1  0.47022400  0.01410100  0.53060400  1
  C  131  1  0.49335700  0.01409600  0.55378000  1
  C  132  1  0.47521900  0.01423700  0.56293400  1
  C  133  1  0.46103100  0.01439300  0.54871500  1
  C  134  1  0.51176200  0.01413500  0.56328300  1
  C  135  1  0.52999600  0.01411700  0.55338100  1
  C  137  1  0.55333400  0.01417600  0.53010900  1
  C  138  1  0.56238500  0.01480000  0.54829600  1
  C  139  1  0.54815700  0.01483100  0.56248000  1
  C  140  1  0.56330000  0.01419300  0.51191200  1
  C  141  1  0.55389000  0.01417000  0.49348100  1
  C  143  1  0.53079000  0.01429700  0.47030700  1
  C  144  1  0.54892800  0.01460700  0.46115800  1
  C  145  1  0.56311400  0.01454100  0.47538900  1
  C  146  1  0.51238800  0.01425100  0.46082200  1
  C  147  1  0.51230600  0.01494100  0.43996800  1
  C  148  1  0.51323700  0.03295800  0.43016000  1
  C  149  1  0.51377200  0.03374900  0.40968400  1
  C  150  1  0.51343300  0.01663700  0.39814000  1
  C  151  1  0.51222500  0.99864200  0.40816600  1
  C  152  1  0.51173500  0.99777700  0.42867700  1
  C  153  1  0.51446700  0.01763000  0.37721200  1
  C  154  1  0.50313700  0.00540000  0.36504500  1
  C  155  1  0.50369000  0.00705900  0.34456500  1
  C  156  1  0.51569800  0.02101200  0.33534600  1
  C  157  1  0.52727200  0.03300900  0.34740900  1
  C  158  1  0.52674300  0.03127500  0.36781900  1
  C  159  1  0.58414600  0.01494300  0.51214500  1
  C  160  1  0.59392700  0.03296000  0.51331300  1
  C  161  1  0.61440000  0.03375900  0.51395400  1
  C  162  1  0.62595500  0.01665800  0.51347800  1
  C  163  1  0.61595200  0.99866800  0.51205000  1
  C  164  1  0.59544700  0.99779300  0.51145700  1
  C  165  1  0.64687900  0.01764600  0.51454000  1
  C  166  1  0.65626400  0.03118700  0.52693500  1
  C  167  1  0.67667200  0.03291500  0.52748700  1
  C  168  1  0.68873700  0.02100300  0.51582700  1
  C  169  1  0.67952500  0.00716500  0.50368400  1
  C  170  1  0.65904600  0.00552100  0.50309900  1
  C  171  1  0.51189500  0.01465200  0.58415100  1
  C  172  1  0.51553800  0.99769500  0.59519400  1
  C  173  1  0.51522500  0.99821000  0.61570900  1
  C  174  1  0.51108000  0.01561500  0.62596200  1
  C  175  1  0.50768400  0.03258100  0.61472900  1
  C  176  1  0.50815600  0.03215800  0.59424000  1
  C  177  1  0.50959400  0.01595000  0.64683200  1
  C  178  1  0.49416000  0.02595400  0.65610600  1
  C  179  1  0.49217000  0.02603000  0.67648800  1
  C  180  1  0.50560300  0.01623300  0.68864100  1
  C  181  1  0.52113400  0.00628300  0.67945900  1
  C  182  1  0.52301400  0.00608100  0.65899300  1
  C  183  1  0.43988500  0.01451500  0.51197200  1
  C  184  1  0.42881400  0.99765600  0.51598700  1
  C  185  1  0.42979100  0.03189000  0.50766700  1
  C  186  1  0.40930200  0.03228800  0.50706500  1
  C  187  1  0.39804800  0.01542500  0.51088800  1
  C  188  1  0.40829500  0.99814500  0.51554000  1
  C  189  1  0.37716900  0.01574200  0.50938600  1
  C  190  1  0.36498300  0.00629000  0.52308200  1
  C  191  1  0.34451200  0.00650100  0.52121200  1
  C  192  1  0.33533700  0.01604400  0.50542500  1
  C  193  1  0.34752000  0.02541100  0.49170900  1
  C  194  1  0.36790600  0.02533300  0.49368700  1
  C  237  1  0.51547400  0.02422800  0.31529000  1
  C  238  1  0.70879000  0.02420900  0.51563400  1
  C  239  1  0.50253100  0.01598900  0.70875000  1
  C  240  1  0.31521200  0.01580400  0.50238100  1
  C  245  1  0.47575200  0.46176700  0.01351300  1
  C  246  1  0.46157400  0.47601000  0.01362100  1
  C  247  1  0.47070500  0.49415800  0.01400900  1
  C  249  1  0.49396900  0.47078100  0.01398300  1
  C  250  1  0.51217100  0.46079000  0.01408800  1
  C  251  1  0.53060100  0.47023600  0.01408900  1
  C  253  1  0.55378200  0.49336300  0.01408600  1
  C  254  1  0.56293400  0.47522500  0.01422900  1
  C  255  1  0.54871200  0.46103900  0.01438200  1
  C  256  1  0.56328400  0.51176800  0.01412200  1
  C  257  1  0.55338200  0.52999900  0.01410000  1
  C  259  1  0.53010900  0.55333400  0.01418600  1
  C  260  1  0.54829600  0.56238800  0.01478500  1
  C  261  1  0.56248100  0.54816100  0.01482800  1
  C  262  1  0.51191100  0.56329700  0.01423100  1
  C  263  1  0.49347800  0.55389000  0.01419900  1
  C  265  1  0.47030100  0.53079600  0.01430000  1
  C  266  1  0.46115400  0.54893500  0.01461600  1
  C  267  1  0.47538800  0.56311700  0.01456800  1
  C  268  1  0.46081300  0.51239500  0.01424000  1
  C  269  1  0.43995900  0.51231500  0.01492400  1
  C  270  1  0.43014400  0.51330100  0.03293500  1
  C  271  1  0.40966800  0.51384000  0.03371700  1
  C  272  1  0.39813100  0.51344300  0.01660100  1
  C  273  1  0.40816300  0.51218300  0.99861400  1
  C  274  1  0.42867500  0.51169100  0.99775800  1
  C  275  1  0.37720100  0.51447700  0.01758200  1
  C  276  1  0.36504500  0.50310900  0.00538000  1
  C  277  1  0.34456300  0.50364600  0.00704500  1
  C  278  1  0.33533400  0.51570600  0.02094500  1
  C  279  1  0.34739200  0.52731900  0.03291300  1
  C  280  1  0.36780000  0.52679400  0.03118400  1
  C  281  1  0.51214300  0.58413800  0.01498500  1
  C  282  1  0.51333000  0.59391100  0.03300500  1
  C  283  1  0.51397600  0.61438300  0.03381100  1
  C  284  1  0.51347700  0.62594100  0.01671300  1
  C  285  1  0.51203600  0.61594600  0.99871900  1
  C  286  1  0.51144100  0.59544400  0.99783800  1
  C  287  1  0.51453300  0.64686300  0.01770900  1
  C  288  1  0.52695900  0.65624100  0.03122400  1
  C  289  1  0.52750300  0.67664700  0.03296400  1
  C  290  1  0.51580200  0.68871100  0.02109200  1
  C  291  1  0.50364200  0.67950400  0.00726600  1
  C  292  1  0.50306700  0.65902600  0.00560600  1
  C  293  1  0.58415400  0.51189900  0.01463800  1
  C  294  1  0.59519400  0.51552600  0.99767800  1
  C  295  1  0.61570900  0.51521000  0.99819000  1
  C  296  1  0.62596300  0.51108900  0.01559900  1
  C  297  1  0.61473200  0.50771200  0.03257000  1
  C  298  1  0.59424300  0.50817500  0.03214600  1
  C  299  1  0.64683600  0.50961300  0.01593700  1
  C  300  1  0.65611600  0.49420500  0.02597300  1
  C  301  1  0.67649800  0.49221100  0.02603400  1
  C  302  1  0.68864500  0.50562700  0.01620500  1
  C  303  1  0.67945700  0.52112900  0.00622200  1
  C  304  1  0.65899100  0.52301200  0.00603100  1
  C  305  1  0.51196700  0.43990400  0.01449700  1
  C  306  1  0.51595600  0.42883700  0.99763000  1
  C  307  1  0.50768600  0.42981100  0.03187800  1
  C  308  1  0.50706800  0.40932300  0.03227000  1
  C  309  1  0.51086900  0.39807500  0.01540000  1
  C  310  1  0.51552000  0.40832000  0.99811800  1
  C  311  1  0.50935100  0.37720000  0.01571100  1
  C  312  1  0.52303700  0.36500900  0.00625100  1
  C  313  1  0.52115200  0.34454000  0.00645600  1
  C  314  1  0.50536500  0.33537500  0.01600800  1
  C  315  1  0.49165800  0.34756200  0.02538100  1
  C  316  1  0.49364800  0.36794700  0.02530500  1
  C  359  1  0.31528300  0.51546200  0.02417200  1
  C  360  1  0.51559000  0.70875800  0.02431400  1
  C  361  1  0.70875300  0.50254400  0.01593900  1
  C  362  1  0.50230800  0.31525200  0.01576600  1
  C  367  1  0.51426800  0.97542300  0.96187200  1
  C  368  1  0.51429700  0.96131500  0.97618900  1
  C  369  1  0.51403200  0.97052900  0.99430400  1
  C  371  1  0.51400000  0.99367400  0.97081600  1
  C  372  1  0.51401800  0.01182500  0.96075500  1
  C  373  1  0.51401600  0.03031300  0.97007100  1
  C  375  1  0.51407200  0.05362400  0.99304700  1
  C  376  1  0.51441300  0.06267500  0.97486300  1
  C  377  1  0.51437800  0.04836300  0.96075700  1
  C  378  1  0.51409900  0.06320700  0.01139900  1
  C  379  1  0.51407200  0.05341600  0.02969300  1
  C  381  1  0.51411200  0.03028200  0.05318000  1
  C  382  1  0.51417100  0.04853400  0.06212400  1
  C  383  1  0.51415300  0.06263700  0.04780500  1
  C  384  1  0.51416900  0.01213700  0.06324700  1
  C  385  1  0.51416200  0.99364900  0.05392900  1
  C  387  1  0.51413600  0.97033500  0.03095100  1
  C  388  1  0.51439900  0.96128800  0.04913900  1
  C  389  1  0.51443800  0.97560000  0.06324500  1
  C  390  1  0.51409900  0.96074200  0.01260000  1
  C  391  1  0.51467200  0.93988200  0.01261600  1
  C  392  1  0.53261900  0.92993600  0.01338800  1
  C  393  1  0.53326500  0.90944700  0.01367900  1
  C  394  1  0.51607700  0.89801100  0.01327300  1
  C  395  1  0.49815000  0.90819400  0.01233000  1
  C  396  1  0.49742900  0.92871500  0.01204600  1
  C  397  1  0.51695300  0.87703900  0.01370800  1
  C  398  1  0.50443100  0.86529000  0.00223800  1
  C  399  1  0.50618700  0.84481200  0.00186500  1
  C  400  1  0.52055200  0.83523100  0.01303900  1
  C  401  1  0.53280600  0.84678400  0.02482300  1
  C  402  1  0.53091800  0.86718600  0.02525900  1
  C  403  1  0.51470000  0.01246600  0.08410600  1
  C  404  1  0.53261900  0.01358700  0.09407100  1
  C  405  1  0.53323500  0.01395800  0.11456000  1
  C  406  1  0.51604400  0.01326900  0.12598000  1
  C  407  1  0.49814900  0.01201400  0.11577700  1
  C  408  1  0.49745500  0.01165500  0.09525600  1
  C  409  1  0.51689600  0.01365600  0.14695600  1
  C  410  1  0.53068100  0.02537300  0.15686500  1
  C  411  1  0.53257400  0.02487100  0.17726700  1
  C  412  1  0.52048200  0.01286700  0.18876400  1
  C  413  1  0.50628800  0.00152100  0.17913100  1
  C  414  1  0.50455600  0.00193900  0.15865200  1
  C  415  1  0.51477100  0.08405800  0.01140600  1
  C  416  1  0.49760300  0.09533500  0.01063100  1
  C  417  1  0.49847600  0.11585300  0.01047000  1
  C  418  1  0.51649000  0.12590500  0.01099000  1
  C  419  1  0.53358400  0.11436100  0.01193500  1
  C  420  1  0.53278700  0.09388100  0.01211600  1
  C  421  1  0.51756300  0.14686000  0.01057000  1
  C  422  1  0.53240100  0.15650900  0.99998900  1
  C  423  1  0.53441100  0.17688900  0.00041600  1
  C  424  1  0.52146200  0.18865800  0.01122000  1
  C  425  1  0.50624300  0.17925600  0.02138600  1
  C  426  1  0.50435600  0.15878500  0.02104000  1
  C  427  1  0.51465900  0.01151800  0.93990200  1
  C  428  1  0.49746700  0.01209100  0.92865200  1
  C  429  1  0.53265600  0.01076300  0.93004800  1
  C  430  1  0.53340000  0.01047100  0.90956600  1
  C  431  1  0.51626800  0.01088500  0.89804700  1
  C  432  1  0.49828800  0.01182200  0.90813400  1
  C  433  1  0.51726700  0.01044500  0.87708700  1
  C  434  1  0.50487000  0.02193500  0.86522900  1
  C  435  1  0.50676200  0.02224900  0.84475800  1
  C  436  1  0.52116700  0.01101200  0.83529800  1
  C  437  1  0.53328000  0.99920200  0.84698300  1
  C  438  1  0.53124800  0.99881400  0.86736300  1
  C  481  1  0.52413700  0.81538500  0.01131600  1
  C  482  1  0.52411300  0.01105000  0.20859000  1
  C  483  1  0.52505000  0.20855000  0.01275500  1
  C  484  1  0.52489700  0.01249600  0.81544500  1
  C  489  1  0.96186800  0.51423300  0.97518300  1
  C  490  1  0.97618500  0.51427500  0.96107400  1
  C  491  1  0.99429900  0.51401500  0.97028700  1
  C  493  1  0.97081400  0.51398300  0.99343300  1
  C  494  1  0.96075400  0.51400800  0.01158300  1
  C  495  1  0.97006800  0.51401500  0.03007300  1
  C  497  1  0.99304400  0.51406600  0.05338300  1
  C  498  1  0.97486200  0.51442200  0.06243400  1
  C  499  1  0.96075400  0.51438400  0.04812200  1
  C  500  1  0.01139700  0.51408600  0.06296500  1
  C  501  1  0.02969000  0.51405900  0.05317400  1
  C  503  1  0.05317600  0.51410400  0.03003900  1
  C  504  1  0.06212000  0.51414700  0.04829100  1
  C  505  1  0.04780300  0.51412500  0.06239400  1
  C  506  1  0.06324200  0.51416600  0.01189300  1
  C  507  1  0.05392500  0.51416000  0.99340500  1
  C  509  1  0.03094700  0.51413300  0.97009000  1
  C  510  1  0.04913500  0.51440500  0.96104300  1
  C  511  1  0.06324100  0.51444500  0.97535800  1
  C  512  1  0.01259600  0.51410100  0.96049600  1
  C  513  1  0.01261000  0.51466500  0.93963600  1
  C  514  1  0.01338600  0.53260800  0.92968300  1
  C  515  1  0.01367200  0.53324800  0.90919300  1
  C  516  1  0.01325300  0.51605500  0.89776100  1
  C  517  1  0.01229700  0.49813400  0.90795100  1
  C  518  1  0.01203200  0.49741900  0.92847300  1
  C  519  1  0.01367800  0.51692600  0.87678700  1
  C  520  1  0.00219900  0.50440800  0.86504400  1
  C  521  1  0.00182700  0.50615000  0.84456500  1
  C  522  1  0.01301900  0.52049200  0.83497200  1
  C  523  1  0.02479200  0.53276200  0.84652200  1
  C  524  1  0.02523400  0.53088200  0.86692600  1
  C  525  1  0.08410100  0.51469800  0.01222600  1
  C  526  1  0.09406500  0.53261500  0.01336100  1
  C  527  1  0.11455400  0.53323200  0.01375300  1
  C  528  1  0.12597400  0.51603900  0.01307300  1
  C  529  1  0.11577100  0.49814400  0.01180900  1
  C  530  1  0.09525100  0.49745200  0.01142500  1
  C  531  1  0.14695000  0.51688700  0.01349000  1
  C  532  1  0.15684500  0.53067500  0.02521800  1
  C  533  1  0.17724700  0.53256700  0.02473900  1
  C  534  1  0.18875700  0.52048400  0.01274100  1
  C  535  1  0.17913400  0.50630400  0.00137000  1
  C  536  1  0.15865800  0.50454500  0.00178900  1
  C  537  1  0.01140500  0.51476500  0.08381600  1
  C  538  1  0.01054500  0.49760600  0.09509800  1
  C  539  1  0.01039500  0.49848600  0.11561500  1
  C  540  1  0.01099000  0.51650200  0.12566000  1
  C  541  1  0.01202000  0.53358600  0.11411100  1
  C  542  1  0.01220100  0.53278100  0.09363100  1
  C  543  1  0.01056800  0.51758700  0.14661200  1
  C  544  1  0.00004200  0.53247000  0.15625000  1
  C  545  1  0.00046400  0.53448200  0.17663000  1
  C  546  1  0.01122000  0.52150200  0.18840700  1
  C  547  1  0.02132300  0.50623300  0.17901600  1
  C  548  1  0.02095600  0.50432200  0.15854800  1
  C  549  1  0.93990100  0.51464800  0.01127800  1
  C  550  1  0.92865400  0.49745500  0.01186900  1
  C  551  1  0.93004400  0.53264300  0.01052300  1
  C  552  1  0.90956200  0.53338600  0.01024800  1
  C  553  1  0.89804600  0.51625200  0.01068000  1
  C  554  1  0.90813400  0.49827500  0.01161300  1
  C  555  1  0.87708500  0.51724900  0.01026400  1
  C  556  1  0.86524300  0.50485900  0.02178000  1
  C  557  1  0.84477400  0.50675400  0.02212700  1
  C  558  1  0.83529800  0.52115400  0.01090000  1
  C  559  1  0.84696400  0.53325900  0.99906400  1
  C  560  1  0.86734500  0.53122600  0.99864300  1
  C  603  1  0.01129300  0.52408400  0.81512700  1
  C  604  1  0.20858300  0.52411900  0.01094400  1
  C  605  1  0.01273600  0.52506700  0.20830500  1
  C  606  1  0.81545000  0.52489600  0.01243400  1
  C  611  1  0.97562500  0.96177000  0.51286700  1
  C  612  1  0.96149100  0.97605900  0.51286300  1
  C  613  1  0.97065000  0.99415700  0.51407200  1
  C  615  1  0.99383800  0.97070000  0.51422600  1
  C  616  1  0.01198600  0.96062700  0.51493000  1
  C  617  1  0.03042200  0.97005500  0.51534100  1
  C  619  1  0.05362000  0.99314000  0.51522600  1
  C  620  1  0.06273500  0.97504100  0.51659900  1
  C  621  1  0.04849000  0.96087600  0.51676100  1
  C  622  1  0.06314500  0.01150900  0.51465800  1
  C  623  1  0.05328600  0.02975400  0.51408000  1
  C  625  1  0.03011000  0.05321000  0.51430000  1
  C  626  1  0.04831600  0.06213300  0.51281100  1
  C  627  1  0.06244400  0.04784300  0.51275100  1
  C  628  1  0.01197000  0.06329100  0.51503100  1
  C  629  1  0.99353500  0.05386200  0.51544600  1
  C  631  1  0.97033200  0.03077300  0.51530900  1
  C  632  1  0.96121900  0.04888200  0.51659500  1
  C  633  1  0.97546500  0.06304700  0.51677500  1
  C  634  1  0.96079600  0.01240500  0.51471000  1
  C  635  1  0.93993200  0.01234800  0.51519100  1
  C  636  1  0.92993200  0.01241300  0.53312500  1
  C  637  1  0.90944400  0.01276200  0.53372600  1
  C  638  1  0.89805900  0.01308900  0.51650500  1
  C  639  1  0.90828500  0.01282900  0.49858100  1
  C  640  1  0.92881100  0.01253400  0.49790600  1
  C  641  1  0.87709000  0.01357600  0.51735200  1
  C  642  1  0.86532000  0.00255400  0.50445900  1
  C  643  1  0.84483700  0.00220200  0.50617300  1
  C  644  1  0.83527100  0.01294800  0.52087300  1
  C  645  1  0.84685700  0.02429800  0.53350500  1
  C  646  1  0.86726300  0.02471400  0.53166500  1
  C  647  1  0.01225200  0.08419600  0.51537500  1
  C  648  1  0.01785900  0.09439400  0.53232300  1
  C  649  1  0.01867100  0.11489000  0.53251600  1
  C  650  1  0.01372300  0.12604400  0.51588800  1
  C  651  1  0.00775700  0.11571000  0.49907100  1
  C  652  1  0.00714700  0.09519600  0.49876400  1
  C  653  1  0.01552200  0.14690000  0.51581700  1
  C  654  1  0.03221400  0.15605300  0.52370000  1
  C  655  1  0.03471300  0.17637500  0.52279700  1
  C  656  1  0.02046700  0.18854000  0.51427400  1
  C  657  1  0.00359500  0.17954300  0.50665000  1
  C  658  1  0.00124800  0.15913400  0.50732200  1
  C  659  1  0.08400200  0.01159800  0.51524200  1
  C  660  1  0.09523400  0.01021900  0.49808300  1
  C  661  1  0.11575600  0.01006400  0.49890800  1
  C  662  1  0.12585000  0.01112400  0.51687400  1
  C  663  1  0.11435400  0.01266100  0.53395400  1
  C  664  1  0.09387300  0.01288300  0.53320000  1
  C  665  1  0.14680100  0.01065900  0.51792100  1
  C  666  1  0.15643200  0.00041000  0.53299900  1
  C  667  1  0.17681600  0.00082800  0.53497700  1
  C  668  1  0.18860600  0.01130100  0.52177500  1
  C  669  1  0.17921400  0.02110100  0.50630700  1
  C  670  1  0.15873800  0.02075500  0.50443900  1
  C  671  1  0.01173000  0.93972400  0.51531100  1
  C  672  1  0.01683600  0.92869400  0.49871900  1
  C  673  1  0.00628800  0.92956100  0.53233000  1
  C  674  1  0.00562400  0.90906300  0.53260900  1
  C  675  1  0.01054800  0.89787300  0.51599600  1
  C  676  1  0.01633900  0.90817600  0.49910100  1
  C  677  1  0.00886100  0.87700700  0.51602900  1
  C  678  1  0.02311400  0.86478100  0.50748200  1
  C  679  1  0.02088200  0.84435000  0.50702000  1
  C  680  1  0.00414200  0.83532200  0.51490200  1
  C  681  1  0.98992100  0.84749100  0.52346500  1
  C  682  1  0.99229400  0.86782900  0.52413500  1
  C  725  1  0.81539800  0.01122700  0.52437800  1
  C  726  1  0.02411000  0.20841700  0.51236600  1
  C  727  1  0.20851800  0.01283900  0.52529600  1
  C  728  1  0.00058800  0.81538900  0.51337100  1
  C  733  1  0.01166200  0.51286700  0.24090400  1
  C  734  1  0.00059400  0.49952200  0.25200900  1
  C  735  1  0.00068100  0.50026500  0.27274100  1
  C  736  1  0.01213900  0.51416000  0.28277400  1
  C  737  1  0.02299200  0.52752700  0.27160400  1
  C  738  1  0.02291800  0.52678800  0.25110600  1
  C  740  1  0.97804800  0.47386500  0.27375300  1
  C  741  1  0.97805100  0.47301600  0.25315800  1
  C  745  1  0.96655200  0.46082600  0.28457600  1
  C  746  1  0.95505600  0.44694700  0.27486000  1
  C  747  1  0.95503400  0.44609500  0.25439400  1
  C  748  1  0.96651000  0.45911300  0.24351800  1
  C  755  1  0.01336100  0.51194000  0.78254000  1
  C  756  1  0.02539200  0.49945200  0.77143800  1
  C  757  1  0.02485900  0.49979900  0.75070200  1
  C  758  1  0.01224300  0.51264600  0.74067300  1
  C  759  1  0.99987700  0.52463300  0.75183900  1
  C  760  1  0.00049900  0.52439300  0.77234600  1
  C  762  1  0.04889400  0.47467800  0.74968200  1
  C  763  1  0.04957500  0.47443800  0.77028500  1
  C  767  1  0.06082200  0.46203100  0.73886400  1
  C  768  1  0.07342600  0.44915300  0.74858400  1
  C  769  1  0.07412500  0.44890900  0.76905500  1
  C  770  1  0.06221700  0.46153300  0.77993000  1
  C  777  1  0.24111800  0.01168500  0.51306200  1
  C  778  1  0.25219800  0.00062400  0.49969200  1
  C  779  1  0.27293500  0.00070100  0.50039700  1
  C  780  1  0.28300100  0.01214200  0.51428400  1
  C  781  1  0.27185600  0.02298400  0.52767900  1
  C  782  1  0.25135300  0.02292200  0.52697500  1
  C  784  1  0.27388600  0.97808900  0.47397700  1
  C  785  1  0.25328900  0.97810300  0.47316400  1
  C  789  1  0.28467900  0.96659900  0.46090900  1
  C  790  1  0.27493300  0.95512000  0.44703700  1
  C  791  1  0.25446700  0.95511000  0.44622100  1
  C  792  1  0.24361900  0.96658000  0.45926900  1
  C  799  1  0.78285000  0.01326500  0.51213900  1
  C  800  1  0.77177600  0.02529300  0.49962300  1
  C  801  1  0.75103800  0.02477200  0.49993500  1
  C  802  1  0.74098000  0.01216500  0.51276900  1
  C  803  1  0.75211800  0.99980700  0.52479000  1
  C  804  1  0.77262500  0.00041900  0.52458300  1
  C  806  1  0.75007500  0.04879700  0.47480500  1
  C  807  1  0.77067800  0.04946500  0.47459700  1
  C  811  1  0.73928300  0.06072700  0.46213500  1
  C  812  1  0.74903200  0.07332000  0.44926600  1
  C  813  1  0.76950300  0.07400600  0.44905600  1
  C  814  1  0.78035200  0.06209600  0.46170200  1
  C  821  1  0.51288200  0.24117000  0.01161100  1
  C  822  1  0.49953600  0.25227200  0.00054100  1
  C  823  1  0.50028100  0.27300400  0.00061800  1
  C  824  1  0.51418100  0.28304500  0.01206700  1
  C  825  1  0.52754800  0.27187700  0.02292000  1
  C  826  1  0.52680800  0.25137700  0.02285600  1
  C  828  1  0.47387600  0.27400800  0.97799300  1
  C  829  1  0.47302500  0.25341300  0.97800400  1
  C  833  1  0.46083400  0.28482500  0.96649500  1
  C  834  1  0.44695000  0.27510600  0.95500800  1
  C  835  1  0.44609600  0.25464000  0.95499600  1
  C  836  1  0.45911800  0.24376800  0.96647200  1
  C  843  1  0.51198000  0.78280800  0.01338500  1
  C  844  1  0.49948200  0.77171500  0.02541400  1
  C  845  1  0.49983000  0.75097800  0.02489100  1
  C  846  1  0.51268700  0.74094500  0.01228900  1
  C  847  1  0.52468200  0.75210200  0.99992200  1
  C  848  1  0.52443900  0.77260800  0.00053400  1
  C  850  1  0.47469700  0.74996700  0.04891100  1
  C  851  1  0.47445600  0.77057000  0.04958300  1
  C  855  1  0.46204200  0.73915300  0.06083600  1
  C  856  1  0.44915600  0.74887800  0.07342800  1
  C  857  1  0.44891300  0.76935000  0.07412000  1
  C  858  1  0.46154300  0.78022100  0.06221400  1
  C  865  1  0.51284900  0.01155100  0.78279300  1
  C  866  1  0.49948100  0.00056900  0.77162900  1
  C  867  1  0.50031000  0.00066600  0.75090100  1
  C  868  1  0.51431600  0.01204700  0.74093500  1
  C  869  1  0.52771700  0.02279500  0.75216300  1
  C  870  1  0.52689500  0.02271100  0.77266000  1
  C  872  1  0.47376900  0.97820900  0.74975400  1
  C  873  1  0.47283600  0.97819500  0.77034600  1
  C  877  1  0.46070100  0.96681100  0.73886400  1
  C  878  1  0.44670800  0.95539300  0.74850900  1
  C  879  1  0.44577200  0.95535300  0.76897000  1
  C  880  1  0.45882000  0.96673200  0.77991400  1
  C  887  1  0.51202000  0.01329200  0.24120100  1
  C  888  1  0.49952700  0.02534200  0.25227800  1
  C  889  1  0.49984000  0.02482600  0.27301600  1
  C  890  1  0.51265800  0.01220300  0.28307700  1
  C  891  1  0.52466700  0.99983400  0.27193400  1
  C  892  1  0.52445800  0.00044100  0.25142600  1
  C  894  1  0.47473500  0.04888100  0.27396900  1
  C  895  1  0.47453300  0.04954600  0.25336600  1
  C  899  1  0.46207600  0.06082700  0.28475300  1
  C  900  1  0.44922400  0.07343300  0.27499800  1
  C  901  1  0.44902100  0.07411600  0.25452800  1
  C  902  1  0.46165500  0.06219000  0.24368600  1
  C  909  1  0.01218500  0.24114700  0.51384800  1
  C  910  1  0.99964200  0.25254000  0.52554600  1
  C  911  1  0.00017900  0.27326300  0.52469700  1
  C  912  1  0.01326500  0.28299400  0.51208500  1
  C  913  1  0.02527000  0.27152800  0.50001300  1
  C  914  1  0.02483100  0.25103900  0.50093700  1
  C  916  1  0.97480600  0.27486300  0.54844000  1
  C  917  1  0.97437700  0.25427800  0.54943400  1
  C  921  1  0.96214800  0.28597900  0.56008000  1
  C  922  1  0.94906900  0.27656900  0.57271200  1
  C  923  1  0.94863000  0.25611600  0.57371700  1
  C  924  1  0.96126300  0.24494600  0.56209500  1
  C  931  1  0.01270400  0.78270900  0.51466900  1
  C  932  1  0.02614100  0.77157100  0.52560000  1
  C  933  1  0.02541100  0.75083900  0.52544300  1
  C  934  1  0.01142900  0.74084200  0.51406600  1
  C  935  1  0.99798600  0.75203100  0.50333600  1
  C  936  1  0.99872000  0.77252800  0.50346700  1
  C  938  1  0.05198900  0.74973800  0.54785100  1
  C  939  1  0.05282900  0.77033500  0.54792700  1
  C  943  1  0.06511400  0.73887400  0.55920900  1
  C  944  1  0.07907200  0.74854800  0.57064600  1
  C  945  1  0.07992000  0.76901400  0.57074200  1
  C  946  1  0.06681600  0.77993100  0.55940300  1
  C  953  1  0.24119400  0.51202500  0.01320300  1
  C  954  1  0.25226400  0.49953300  0.02525800  1
  C  955  1  0.27300300  0.49984700  0.02475300  1
  C  956  1  0.28306900  0.51266700  0.01213600  1
  C  957  1  0.27193300  0.52467500  0.99976200  1
  C  958  1  0.25142500  0.52446500  0.00035800  1
  C  960  1  0.27394400  0.47474100  0.04880700  1
  C  961  1  0.25334000  0.47453600  0.04946000  1
  C  965  1  0.28472100  0.46208100  0.06075900  1
  C  966  1  0.27496000  0.44922900  0.07335800  1
  C  967  1  0.25448900  0.44902400  0.07403000  1
  C  968  1  0.24365300  0.46165800  0.06209800  1
  C  975  1  0.78279500  0.51285600  0.01146700  1
  C  976  1  0.77162400  0.49948800  0.00049000  1
  C  977  1  0.75089800  0.50031900  0.00059900  1
  C  978  1  0.74093800  0.51432500  0.01198500  1
  C  979  1  0.75217200  0.52772100  0.02273200  1
  C  980  1  0.77266700  0.52690300  0.02263200  1
  C  982  1  0.74973800  0.47377500  0.97814700  1
  C  983  1  0.77032900  0.47284000  0.97812400  1
  C  987  1  0.73884100  0.46070600  0.96675600  1
  C  988  1  0.74847800  0.44671000  0.95533700  1
  C  989  1  0.76894100  0.44577200  0.95528600  1
  C  990  1  0.77989100  0.45882100  0.96665800  1
  C  997  1  0.13062600  0.59204600  0.57778100  1
  C  998  1  0.13086400  0.57786400  0.59201200  1
  C  999  1  0.13068600  0.58696600  0.61018200  1
  C  1001  1  0.13056100  0.61025700  0.58681200  1
  C  1002  1  0.13055800  0.62846300  0.57682200  1
  C  1003  1  0.13047400  0.64689500  0.58625800  1
  C  1005  1  0.13036800  0.67005600  0.60937800  1
  C  1006  1  0.13087600  0.67922800  0.59126000  1
  C  1007  1  0.13100300  0.66500900  0.57707000  1
  C  1008  1  0.13027900  0.67953600  0.62777800  1
  C  1009  1  0.13023500  0.66966400  0.64601700  1
  C  1011  1  0.13038900  0.64641900  0.66936600  1
  C  1012  1  0.13053600  0.66462200  0.67841000  1
  C  1013  1  0.13045500  0.67879900  0.66417000  1
  C  1014  1  0.13049000  0.62822100  0.67932700  1
  C  1015  1  0.13050800  0.60978800  0.66991000  1
  C  1017  1  0.13073600  0.58657500  0.64682100  1
  C  1018  1  0.13059700  0.57746200  0.66498500  1
  C  1019  1  0.13055000  0.59170700  0.67915400  1
  C  1020  1  0.13086100  0.57705200  0.62842000  1
  C  1021  1  0.13146800  0.55616600  0.62835000  1
  C  1022  1  0.14891300  0.54616900  0.63261400  1
  C  1023  1  0.14938400  0.52568700  0.63342400  1
  C  1024  1  0.13252800  0.51435300  0.62984200  1
  C  1025  1  0.11519500  0.52449200  0.62514600  1
  C  1026  1  0.11462300  0.54500300  0.62454100  1
  C  1027  1  0.13286500  0.49350700  0.63170500  1
  C  1028  1  0.12342500  0.48110200  0.61820100  1
  C  1029  1  0.12350600  0.46067800  0.62049100  1
  C  1030  1  0.13290400  0.45178600  0.63652000  1
  C  1031  1  0.14228000  0.46417200  0.65003900  1
  C  1032  1  0.14236000  0.48451500  0.64762300  1
  C  1033  1  0.13120300  0.62846500  0.70017400  1
  C  1034  1  0.14921300  0.62975600  0.70995400  1
  C  1035  1  0.15001400  0.63040900  0.73042500  1
  C  1036  1  0.13292000  0.62982000  0.74198500  1
  C  1037  1  0.11493600  0.62828900  0.73198400  1
  C  1038  1  0.11405900  0.62767800  0.71148100  1
  C  1039  1  0.13391500  0.63087300  0.76291100  1
  C  1040  1  0.14738900  0.64334200  0.77229500  1
  C  1041  1  0.14914500  0.64387100  0.79270200  1
  C  1042  1  0.13733100  0.63211100  0.80476500  1
  C  1043  1  0.12355200  0.61989800  0.79555300  1
  C  1044  1  0.12187000  0.61934800  0.77507600  1
  C  1045  1  0.13091000  0.70037700  0.62789600  1
  C  1046  1  0.11368200  0.71158100  0.62819600  1
  C  1047  1  0.11447200  0.73209500  0.62801300  1
  C  1048  1  0.13245400  0.74218700  0.62739600  1
  C  1049  1  0.14962600  0.73073100  0.62731300  1
  C  1050  1  0.14891000  0.71025000  0.62755200  1
  C  1051  1  0.13338400  0.76311400  0.62664700  1
  C  1052  1  0.14718000  0.77266900  0.61468300  1
  C  1053  1  0.14880100  0.79308100  0.61435100  1
  C  1054  1  0.13657900  0.80499900  0.62585300  1
  C  1055  1  0.12248500  0.79559400  0.63756000  1
  C  1056  1  0.12090600  0.77510300  0.63789000  1
  C  1057  1  0.13100700  0.62828000  0.55594000  1
  C  1058  1  0.11410700  0.63215300  0.54488400  1
  C  1059  1  0.14842700  0.62416600  0.54584800  1
  C  1060  1  0.14882100  0.62357000  0.52535900  1
  C  1061  1  0.13191500  0.62723500  0.51412000  1
  C  1062  1  0.11459700  0.63173600  0.52436700  1
  C  1063  1  0.13222500  0.62572100  0.49324800  1
  C  1064  1  0.12265100  0.63933700  0.48106700  1
  C  1065  1  0.12283700  0.63744100  0.46060100  1
  C  1066  1  0.13247000  0.62170500  0.45143400  1
  C  1067  1  0.14196100  0.60807200  0.46361000  1
  C  1068  1  0.14191900  0.61008100  0.48399200  1
  C  1111  1  0.13227200  0.43176500  0.64004200  1
  C  1112  1  0.14057800  0.63188400  0.82480900  1
  C  1113  1  0.13958800  0.82510100  0.62606700  1
  C  1114  1  0.13219400  0.61862800  0.43132000  1
  C  1119  1  0.57809900  0.12984900  0.59209800  1
  C  1120  1  0.59234500  0.12995400  0.57792200  1
  C  1121  1  0.61049200  0.13035600  0.58705500  1
  C  1123  1  0.58711100  0.13033400  0.61031700  1
  C  1124  1  0.57711600  0.13044700  0.62851700  1
  C  1125  1  0.58656600  0.13044300  0.64694600  1
  C  1127  1  0.60969900  0.13043800  0.67012200  1
  C  1128  1  0.59156100  0.13057900  0.67927600  1
  C  1129  1  0.57737300  0.13073500  0.66505700  1
  C  1130  1  0.62810400  0.13047700  0.67962500  1
  C  1131  1  0.64633800  0.13045900  0.66972300  1
  C  1133  1  0.66967600  0.13051800  0.64645100  1
  C  1134  1  0.67872700  0.13114200  0.66463800  1
  C  1135  1  0.66449900  0.13117300  0.67882200  1
  C  1136  1  0.67964200  0.13053500  0.62825400  1
  C  1137  1  0.67023200  0.13051200  0.60982300  1
  C  1139  1  0.64713200  0.13063900  0.58664900  1
  C  1140  1  0.66527000  0.13094900  0.57750000  1
  C  1141  1  0.67945600  0.13088300  0.59173100  1
  C  1142  1  0.62873000  0.13059300  0.57716400  1
  C  1143  1  0.62864800  0.13128300  0.55631000  1
  C  1144  1  0.62957900  0.14930000  0.54650200  1
  C  1145  1  0.63011400  0.15009100  0.52602600  1
  C  1146  1  0.62977500  0.13297900  0.51448200  1
  C  1147  1  0.62856700  0.11498400  0.52450800  1
  C  1148  1  0.62807700  0.11411900  0.54501900  1
  C  1149  1  0.63080900  0.13397200  0.49355400  1
  C  1150  1  0.61947900  0.12174200  0.48138700  1
  C  1151  1  0.62003200  0.12340100  0.46090700  1
  C  1152  1  0.63204000  0.13735400  0.45168800  1
  C  1153  1  0.64361400  0.14935100  0.46375100  1
  C  1154  1  0.64308500  0.14761700  0.48416100  1
  C  1155  1  0.70048800  0.13128500  0.62848700  1
  C  1156  1  0.71026900  0.14930200  0.62965500  1
  C  1157  1  0.73074200  0.15010100  0.63029600  1
  C  1158  1  0.74229700  0.13300000  0.62982000  1
  C  1159  1  0.73229400  0.11501000  0.62839200  1
  C  1160  1  0.71178900  0.11413500  0.62779900  1
  C  1161  1  0.76322100  0.13398800  0.63088200  1
  C  1162  1  0.77260600  0.14752900  0.64327700  1
  C  1163  1  0.79301400  0.14925700  0.64382900  1
  C  1164  1  0.80507900  0.13734500  0.63216900  1
  C  1165  1  0.79586700  0.12350700  0.62002600  1
  C  1166  1  0.77538800  0.12186300  0.61944100  1
  C  1167  1  0.62823700  0.13099400  0.70049300  1
  C  1168  1  0.63188000  0.11403700  0.71153600  1
  C  1169  1  0.63156700  0.11455200  0.73205100  1
  C  1170  1  0.62742200  0.13195700  0.74230400  1
  C  1171  1  0.62402600  0.14892300  0.73107100  1
  C  1172  1  0.62449800  0.14850000  0.71058200  1
  C  1173  1  0.62593600  0.13229200  0.76317400  1
  C  1174  1  0.61050200  0.14229600  0.77244800  1
  C  1175  1  0.60851200  0.14237200  0.79283000  1
  C  1176  1  0.62194500  0.13257500  0.80498300  1
  C  1177  1  0.63747600  0.12262500  0.79580100  1
  C  1178  1  0.63935600  0.12242300  0.77533500  1
  C  1179  1  0.55622700  0.13085700  0.62831400  1
  C  1180  1  0.54515600  0.11399800  0.63232900  1
  C  1181  1  0.54613300  0.14823200  0.62400900  1
  C  1182  1  0.52564400  0.14863000  0.62340700  1
  C  1183  1  0.51439000  0.13176700  0.62723000  1
  C  1184  1  0.52463700  0.11448700  0.63188200  1
  C  1185  1  0.49351100  0.13208400  0.62572800  1
  C  1186  1  0.48132500  0.12263200  0.63942400  1
  C  1187  1  0.46085400  0.12284300  0.63755400  1
  C  1188  1  0.45167900  0.13238600  0.62176700  1
  C  1189  1  0.46386200  0.14175300  0.60805100  1
  C  1190  1  0.48424800  0.14167500  0.61002900  1
  C  1233  1  0.63181600  0.14057000  0.43163200  1
  C  1234  1  0.82513200  0.14055100  0.63197600  1
  C  1235  1  0.61887300  0.13233100  0.82509200  1
  C  1236  1  0.43155400  0.13214600  0.61872300  1
  C  1241  1  0.59209400  0.57810900  0.12985500  1
  C  1242  1  0.57791600  0.59235200  0.12996300  1
  C  1243  1  0.58704700  0.61050000  0.13035100  1
  C  1245  1  0.61031100  0.58712300  0.13032500  1
  C  1246  1  0.62851300  0.57713200  0.13043000  1
  C  1247  1  0.64694300  0.58657800  0.13043100  1
  C  1249  1  0.67012400  0.60970500  0.13042800  1
  C  1250  1  0.67927600  0.59156700  0.13057100  1
  C  1251  1  0.66505400  0.57738100  0.13072400  1
  C  1252  1  0.67962600  0.62811000  0.13046400  1
  C  1253  1  0.66972400  0.64634100  0.13044200  1
  C  1255  1  0.64645100  0.66967600  0.13052800  1
  C  1256  1  0.66463800  0.67873000  0.13112700  1
  C  1257  1  0.67882300  0.66450300  0.13117000  1
  C  1258  1  0.62825300  0.67963900  0.13057300  1
  C  1259  1  0.60982000  0.67023200  0.13054100  1
  C  1261  1  0.58664300  0.64713800  0.13064200  1
  C  1262  1  0.57749600  0.66527700  0.13095800  1
  C  1263  1  0.59173000  0.67945900  0.13091000  1
  C  1264  1  0.57715500  0.62873700  0.13058200  1
  C  1265  1  0.55630100  0.62865700  0.13126600  1
  C  1266  1  0.54648600  0.62964300  0.14927700  1
  C  1267  1  0.52601000  0.63018200  0.15005900  1
  C  1268  1  0.51447300  0.62978500  0.13294300  1
  C  1269  1  0.52450500  0.62852500  0.11495600  1
  C  1270  1  0.54501700  0.62803300  0.11410000  1
  C  1271  1  0.49354300  0.63081900  0.13392400  1
  C  1272  1  0.48138700  0.61945100  0.12172200  1
  C  1273  1  0.46090500  0.61998800  0.12338700  1
  C  1274  1  0.45167600  0.63204800  0.13728700  1
  C  1275  1  0.46373400  0.64366100  0.14925500  1
  C  1276  1  0.48414200  0.64313600  0.14752600  1
  C  1277  1  0.62848500  0.70048000  0.13132700  1
  C  1278  1  0.62967200  0.71025300  0.14934700  1
  C  1279  1  0.63031800  0.73072500  0.15015300  1
  C  1280  1  0.62981900  0.74228300  0.13305500  1
  C  1281  1  0.62837800  0.73228800  0.11506100  1
  C  1282  1  0.62778300  0.71178600  0.11418000  1
  C  1283  1  0.63087500  0.76320500  0.13405100  1
  C  1284  1  0.64330100  0.77258300  0.14756600  1
  C  1285  1  0.64384500  0.79298900  0.14930600  1
  C  1286  1  0.63214400  0.80505300  0.13743400  1
  C  1287  1  0.61998400  0.79584600  0.12360800  1
  C  1288  1  0.61940900  0.77536800  0.12194800  1
  C  1289  1  0.70049600  0.62824100  0.13098000  1
  C  1290  1  0.71153600  0.63186800  0.11402000  1
  C  1291  1  0.73205100  0.63155200  0.11453200  1
  C  1292  1  0.74230500  0.62743100  0.13194100  1
  C  1293  1  0.73107400  0.62405400  0.14891200  1
  C  1294  1  0.71058500  0.62451700  0.14848800  1
  C  1295  1  0.76317800  0.62595500  0.13227900  1
  C  1296  1  0.77245800  0.61054700  0.14231500  1
  C  1297  1  0.79284000  0.60855300  0.14237600  1
  C  1298  1  0.80498700  0.62196900  0.13254700  1
  C  1299  1  0.79579900  0.63747100  0.12256400  1
  C  1300  1  0.77533300  0.63935400  0.12237300  1
  C  1301  1  0.62830900  0.55624600  0.13083900  1
  C  1302  1  0.63229800  0.54517900  0.11397200  1
  C  1303  1  0.62402800  0.54615300  0.14822000  1
  C  1304  1  0.62341000  0.52566500  0.14861200  1
  C  1305  1  0.62721100  0.51441700  0.13174200  1
  C  1306  1  0.63186200  0.52466200  0.11446000  1
  C  1307  1  0.62569300  0.49354200  0.13205300  1
  C  1308  1  0.63937900  0.48135100  0.12259300  1
  C  1309  1  0.63749400  0.46088200  0.12279800  1
  C  1310  1  0.62170700  0.45171700  0.13235000  1
  C  1311  1  0.60800000  0.46390400  0.14172300  1
  C  1312  1  0.60999000  0.48428900  0.14164700  1
  C  1355  1  0.43162500  0.63180400  0.14051400  1
  C  1356  1  0.63193200  0.82510000  0.14065600  1
  C  1357  1  0.82509500  0.61888600  0.13228100  1
  C  1358  1  0.61865000  0.43159400  0.13210800  1
  C  1363  1  0.63061000  0.09176460  0.07821360  1
  C  1364  1  0.63063900  0.07765660  0.09253060  1
  C  1365  1  0.63037400  0.08687060  0.11064600  1
  C  1367  1  0.63034200  0.11001600  0.08715760  1
  C  1368  1  0.63036000  0.12816700  0.07709660  1
  C  1369  1  0.63035800  0.14665500  0.08641260  1
  C  1371  1  0.63041400  0.16996600  0.10938900  1
  C  1372  1  0.63075500  0.17901700  0.09120460  1
  C  1373  1  0.63072000  0.16470500  0.07709860  1
  C  1374  1  0.63044100  0.17954900  0.12774100  1
  C  1375  1  0.63041400  0.16975800  0.14603500  1
  C  1377  1  0.63045400  0.14662400  0.16952200  1
  C  1378  1  0.63051300  0.16487600  0.17846600  1
  C  1379  1  0.63049500  0.17897900  0.16414700  1
  C  1380  1  0.63051100  0.12847900  0.17958900  1
  C  1381  1  0.63050400  0.10999100  0.17027100  1
  C  1383  1  0.63047800  0.08667660  0.14729300  1
  C  1384  1  0.63074100  0.07762960  0.16548100  1
  C  1385  1  0.63078000  0.09194160  0.17958700  1
  C  1386  1  0.63044100  0.07708360  0.12894200  1
  C  1387  1  0.63101400  0.05622360  0.12895800  1
  C  1388  1  0.64896100  0.04627760  0.12973000  1
  C  1389  1  0.64960700  0.02578860  0.13002100  1
  C  1390  1  0.63241900  0.01435260  0.12961500  1
  C  1391  1  0.61449200  0.02453560  0.12867200  1
  C  1392  1  0.61377100  0.04505660  0.12838800  1
  C  1393  1  0.63329500  0.99338100  0.13005000  1
  C  1394  1  0.62077300  0.98163200  0.11858000  1
  C  1395  1  0.62252900  0.96115400  0.11820700  1
  C  1396  1  0.63689400  0.95157300  0.12938100  1
  C  1397  1  0.64914800  0.96312600  0.14116500  1
  C  1398  1  0.64726000  0.98352800  0.14160100  1
  C  1399  1  0.63104200  0.12880800  0.20044800  1
  C  1400  1  0.64896100  0.12992900  0.21041300  1
  C  1401  1  0.64957700  0.13030000  0.23090200  1
  C  1402  1  0.63238600  0.12961100  0.24232200  1
  C  1403  1  0.61449100  0.12835600  0.23211900  1
  C  1404  1  0.61379700  0.12799700  0.21159800  1
  C  1405  1  0.63323800  0.12999800  0.26329800  1
  C  1406  1  0.64702300  0.14171500  0.27320700  1
  C  1407  1  0.64891600  0.14121300  0.29360900  1
  C  1408  1  0.63682400  0.12920900  0.30510600  1
  C  1409  1  0.62263000  0.11786300  0.29547300  1
  C  1410  1  0.62089800  0.11828100  0.27499400  1
  C  1411  1  0.63111300  0.20040000  0.12774800  1
  C  1412  1  0.61394500  0.21167700  0.12697300  1
  C  1413  1  0.61481800  0.23219500  0.12681200  1
  C  1414  1  0.63283200  0.24224700  0.12733200  1
  C  1415  1  0.64992600  0.23070300  0.12827700  1
  C  1416  1  0.64912900  0.21022300  0.12845800  1
  C  1417  1  0.63390500  0.26320200  0.12691200  1
  C  1418  1  0.64874300  0.27285100  0.11633100  1
  C  1419  1  0.65075300  0.29323100  0.11675800  1
  C  1420  1  0.63780400  0.30500000  0.12756200  1
  C  1421  1  0.62258500  0.29559800  0.13772800  1
  C  1422  1  0.62069800  0.27512700  0.13738200  1
  C  1423  1  0.63100100  0.12786000  0.05624360  1
  C  1424  1  0.61380900  0.12843300  0.04499360  1
  C  1425  1  0.64899800  0.12710500  0.04638960  1
  C  1426  1  0.64974200  0.12681300  0.02590760  1
  C  1427  1  0.63261000  0.12722700  0.01438860  1
  C  1428  1  0.61463000  0.12816400  0.02447560  1
  C  1429  1  0.63360900  0.12678700  0.99342900  1
  C  1430  1  0.62121200  0.13827700  0.98157100  1
  C  1431  1  0.62310400  0.13859100  0.96110000  1
  C  1432  1  0.63750900  0.12735400  0.95164000  1
  C  1433  1  0.64962200  0.11554400  0.96332500  1
  C  1434  1  0.64759000  0.11515600  0.98370500  1
  C  1477  1  0.64047900  0.93172700  0.12765800  1
  C  1478  1  0.64045500  0.12739200  0.32493200  1
  C  1479  1  0.64139200  0.32489200  0.12909700  1
  C  1480  1  0.64123900  0.12883800  0.93178700  1
  C  1485  1  0.07820960  0.63057500  0.09152460  1
  C  1486  1  0.09252660  0.63061700  0.07741560  1
  C  1487  1  0.11064100  0.63035700  0.08662860  1
  C  1489  1  0.08715560  0.63032500  0.10977500  1
  C  1490  1  0.07709560  0.63035000  0.12792500  1
  C  1491  1  0.08640960  0.63035700  0.14641500  1
  C  1493  1  0.10938600  0.63040800  0.16972500  1
  C  1494  1  0.09120360  0.63076400  0.17877600  1
  C  1495  1  0.07709560  0.63072600  0.16446400  1
  C  1496  1  0.12773900  0.63042800  0.17930700  1
  C  1497  1  0.14603200  0.63040100  0.16951600  1
  C  1499  1  0.16951800  0.63044600  0.14638100  1
  C  1500  1  0.17846200  0.63048900  0.16463300  1
  C  1501  1  0.16414500  0.63046700  0.17873600  1
  C  1502  1  0.17958400  0.63050800  0.12823500  1
  C  1503  1  0.17026700  0.63050200  0.10974700  1
  C  1505  1  0.14728900  0.63047500  0.08643160  1
  C  1506  1  0.16547700  0.63074700  0.07738460  1
  C  1507  1  0.17958300  0.63078700  0.09169960  1
  C  1508  1  0.12893800  0.63044300  0.07683760  1
  C  1509  1  0.12895200  0.63100700  0.05597760  1
  C  1510  1  0.12972800  0.64895000  0.04602460  1
  C  1511  1  0.13001400  0.64959000  0.02553460  1
  C  1512  1  0.12959500  0.63239700  0.01410260  1
  C  1513  1  0.12863900  0.61447600  0.02429260  1
  C  1514  1  0.12837400  0.61376100  0.04481460  1
  C  1515  1  0.13002000  0.63326800  0.99312900  1
  C  1516  1  0.11854100  0.62075000  0.98138600  1
  C  1517  1  0.11816900  0.62249200  0.96090700  1
  C  1518  1  0.12936100  0.63683400  0.95131400  1
  C  1519  1  0.14113400  0.64910400  0.96286400  1
  C  1520  1  0.14157600  0.64722400  0.98326800  1
  C  1521  1  0.20044300  0.63104000  0.12856800  1
  C  1522  1  0.21040700  0.64895700  0.12970300  1
  C  1523  1  0.23089600  0.64957400  0.13009500  1
  C  1524  1  0.24231600  0.63238100  0.12941500  1
  C  1525  1  0.23211300  0.61448600  0.12815100  1
  C  1526  1  0.21159300  0.61379400  0.12776700  1
  C  1527  1  0.26329200  0.63322900  0.12983200  1
  C  1528  1  0.27318700  0.64701700  0.14156000  1
  C  1529  1  0.29358900  0.64890900  0.14108100  1
  C  1530  1  0.30509900  0.63682600  0.12908300  1
  C  1531  1  0.29547600  0.62264600  0.11771200  1
  C  1532  1  0.27500000  0.62088700  0.11813100  1
  C  1533  1  0.12774700  0.63110700  0.20015800  1
  C  1534  1  0.12688700  0.61394800  0.21144000  1
  C  1535  1  0.12673700  0.61482800  0.23195700  1
  C  1536  1  0.12733200  0.63284400  0.24200200  1
  C  1537  1  0.12836200  0.64992800  0.23045300  1
  C  1538  1  0.12854300  0.64912300  0.20997300  1
  C  1539  1  0.12691000  0.63392900  0.26295400  1
  C  1540  1  0.11638400  0.64881200  0.27259200  1
  C  1541  1  0.11680600  0.65082400  0.29297200  1
  C  1542  1  0.12756200  0.63784400  0.30474900  1
  C  1543  1  0.13766500  0.62257500  0.29535800  1
  C  1544  1  0.13729800  0.62066400  0.27489000  1
  C  1545  1  0.05624260  0.63099000  0.12762000  1
  C  1546  1  0.04499560  0.61379700  0.12821100  1
  C  1547  1  0.04638560  0.64898500  0.12686500  1
  C  1548  1  0.02590360  0.64972800  0.12659000  1
  C  1549  1  0.01438760  0.63259400  0.12702200  1
  C  1550  1  0.02447560  0.61461700  0.12795500  1
  C  1551  1  0.99342700  0.63359100  0.12660600  1
  C  1552  1  0.98158500  0.62120100  0.13812200  1
  C  1553  1  0.96111600  0.62309600  0.13846900  1
  C  1554  1  0.95164000  0.63749600  0.12724200  1
  C  1555  1  0.96330600  0.64960100  0.11540600  1
  C  1556  1  0.98368700  0.64756800  0.11498500  1
  C  1599  1  0.12763500  0.64042600  0.93146900  1
  C  1600  1  0.32492500  0.64046100  0.12728600  1
  C  1601  1  0.12907800  0.64140900  0.32464700  1
  C  1602  1  0.93179200  0.64123800  0.12877600  1
  C  1607  1  0.09196660  0.07811160  0.62920900  1
  C  1608  1  0.07783260  0.09240060  0.62920500  1
  C  1609  1  0.08699160  0.11049900  0.63041400  1
  C  1611  1  0.11018000  0.08704160  0.63056800  1
  C  1612  1  0.12832800  0.07696860  0.63127200  1
  C  1613  1  0.14676400  0.08639660  0.63168300  1
  C  1615  1  0.16996200  0.10948200  0.63156800  1
  C  1616  1  0.17907700  0.09138260  0.63294100  1
  C  1617  1  0.16483200  0.07721760  0.63310300  1
  C  1618  1  0.17948700  0.12785100  0.63100000  1
  C  1619  1  0.16962800  0.14609600  0.63042200  1
  C  1621  1  0.14645200  0.16955200  0.63064200  1
  C  1622  1  0.16465800  0.17847500  0.62915300  1
  C  1623  1  0.17878600  0.16418500  0.62909300  1
  C  1624  1  0.12831200  0.17963300  0.63137300  1
  C  1625  1  0.10987700  0.17020400  0.63178800  1
  C  1627  1  0.08667360  0.14711500  0.63165100  1
  C  1628  1  0.07756060  0.16522400  0.63293700  1
  C  1629  1  0.09180660  0.17938900  0.63311700  1
  C  1630  1  0.07713760  0.12874700  0.63105200  1
  C  1631  1  0.05627360  0.12869000  0.63153300  1
  C  1632  1  0.04627360  0.12875500  0.64946700  1
  C  1633  1  0.02578560  0.12910400  0.65006800  1
  C  1634  1  0.01440060  0.12943100  0.63284700  1
  C  1635  1  0.02462660  0.12917100  0.61492300  1
  C  1636  1  0.04515260  0.12887600  0.61424800  1
  C  1637  1  0.99343200  0.12991800  0.63369400  1
  C  1638  1  0.98166200  0.11889600  0.62080100  1
  C  1639  1  0.96117900  0.11854400  0.62251500  1
  C  1640  1  0.95161300  0.12929000  0.63721500  1
  C  1641  1  0.96319900  0.14064000  0.64984700  1
  C  1642  1  0.98360500  0.14105600  0.64800700  1
  C  1643  1  0.12859400  0.20053800  0.63171700  1
  C  1644  1  0.13420100  0.21073600  0.64866500  1
  C  1645  1  0.13501300  0.23123200  0.64885800  1
  C  1646  1  0.13006500  0.24238600  0.63223000  1
  C  1647  1  0.12409900  0.23205200  0.61541300  1
  C  1648  1  0.12348900  0.21153800  0.61510600  1
  C  1649  1  0.13186400  0.26324200  0.63215900  1
  C  1650  1  0.14855600  0.27239500  0.64004200  1
  C  1651  1  0.15105500  0.29271700  0.63913900  1
  C  1652  1  0.13680900  0.30488200  0.63061600  1
  C  1653  1  0.11993700  0.29588500  0.62299200  1
  C  1654  1  0.11759000  0.27547600  0.62366400  1
  C  1655  1  0.20034400  0.12794000  0.63158400  1
  C  1656  1  0.21157600  0.12656100  0.61442500  1
  C  1657  1  0.23209800  0.12640600  0.61525000  1
  C  1658  1  0.24219200  0.12746600  0.63321600  1
  C  1659  1  0.23069600  0.12900300  0.65029600  1
  C  1660  1  0.21021500  0.12922500  0.64954200  1
  C  1661  1  0.26314300  0.12700100  0.63426300  1
  C  1662  1  0.27277400  0.11675200  0.64934100  1
  C  1663  1  0.29315800  0.11717000  0.65131900  1
  C  1664  1  0.30494800  0.12764300  0.63811700  1
  C  1665  1  0.29555600  0.13744300  0.62264900  1
  C  1666  1  0.27508000  0.13709700  0.62078100  1
  C  1667  1  0.12807200  0.05606560  0.63165300  1
  C  1668  1  0.13317800  0.04503560  0.61506100  1
  C  1669  1  0.12263000  0.04590260  0.64867200  1
  C  1670  1  0.12196600  0.02540460  0.64895100  1
  C  1671  1  0.12689000  0.01421460  0.63233800  1
  C  1672  1  0.13268100  0.02451760  0.61544300  1
  C  1673  1  0.12520300  0.99334900  0.63237100  1
  C  1674  1  0.13945600  0.98112300  0.62382400  1
  C  1675  1  0.13722400  0.96069200  0.62336200  1
  C  1676  1  0.12048400  0.95166400  0.63124400  1
  C  1677  1  0.10626300  0.96383300  0.63980700  1
  C  1678  1  0.10863600  0.98417100  0.64047700  1
  C  1721  1  0.93174000  0.12756900  0.64072000  1
  C  1722  1  0.14045200  0.32475900  0.62870800  1
  C  1723  1  0.32486000  0.12918100  0.64163800  1
  C  1724  1  0.11693000  0.93173100  0.62971300  1
  C  1729  1  0.12800400  0.62920900  0.35724600  1
  C  1730  1  0.11693600  0.61586400  0.36835100  1
  C  1731  1  0.11702300  0.61660700  0.38908300  1
  C  1732  1  0.12848100  0.63050200  0.39911600  1
  C  1733  1  0.13933400  0.64386900  0.38794600  1
  C  1734  1  0.13926000  0.64313000  0.36744800  1
  C  1736  1  0.09438960  0.59020700  0.39009500  1
  C  1737  1  0.09439260  0.58935800  0.36950000  1
  C  1741  1  0.08289360  0.57716800  0.40091800  1
  C  1742  1  0.07139760  0.56328900  0.39120200  1
  C  1743  1  0.07137560  0.56243700  0.37073600  1
  C  1744  1  0.08285160  0.57545500  0.35986000  1
  C  1751  1  0.12970300  0.62828200  0.89888200  1
  C  1752  1  0.14173400  0.61579400  0.88778000  1
  C  1753  1  0.14120100  0.61614100  0.86704400  1
  C  1754  1  0.12858500  0.62898800  0.85701500  1
  C  1755  1  0.11621900  0.64097500  0.86818100  1
  C  1756  1  0.11684100  0.64073500  0.88868800  1
  C  1758  1  0.16523600  0.59102000  0.86602400  1
  C  1759  1  0.16591700  0.59078000  0.88662700  1
  C  1763  1  0.17716400  0.57837300  0.85520600  1
  C  1764  1  0.18976800  0.56549500  0.86492600  1
  C  1765  1  0.19046700  0.56525100  0.88539700  1
  C  1766  1  0.17855900  0.57787500  0.89627200  1
  C  1773  1  0.35746000  0.12802700  0.62940400  1
  C  1774  1  0.36854000  0.11696600  0.61603400  1
  C  1775  1  0.38927700  0.11704300  0.61673900  1
  C  1776  1  0.39934300  0.12848400  0.63062600  1
  C  1777  1  0.38819800  0.13932600  0.64402100  1
  C  1778  1  0.36769500  0.13926400  0.64331700  1
  C  1780  1  0.39022800  0.09443060  0.59031900  1
  C  1781  1  0.36963100  0.09444460  0.58950600  1
  C  1785  1  0.40102100  0.08294060  0.57725100  1
  C  1786  1  0.39127500  0.07146160  0.56337900  1
  C  1787  1  0.37080900  0.07145160  0.56256300  1
  C  1788  1  0.35996100  0.08292160  0.57561100  1
  C  1795  1  0.89919200  0.12960700  0.62848100  1
  C  1796  1  0.88811800  0.14163500  0.61596500  1
  C  1797  1  0.86738000  0.14111400  0.61627700  1
  C  1798  1  0.85732200  0.12850700  0.62911100  1
  C  1799  1  0.86846000  0.11614900  0.64113200  1
  C  1800  1  0.88896700  0.11676100  0.64092500  1
  C  1802  1  0.86641700  0.16513900  0.59114700  1
  C  1803  1  0.88702000  0.16580700  0.59093900  1
  C  1807  1  0.85562500  0.17706900  0.57847700  1
  C  1808  1  0.86537400  0.18966200  0.56560800  1
  C  1809  1  0.88584500  0.19034800  0.56539800  1
  C  1810  1  0.89669400  0.17843800  0.57804400  1
  C  1817  1  0.62922400  0.35751200  0.12795300  1
  C  1818  1  0.61587800  0.36861400  0.11688300  1
  C  1819  1  0.61662300  0.38934600  0.11696000  1
  C  1820  1  0.63052300  0.39938700  0.12840900  1
  C  1821  1  0.64389000  0.38821900  0.13926200  1
  C  1822  1  0.64315000  0.36771900  0.13919800  1
  C  1824  1  0.59021800  0.39035000  0.09433460  1
  C  1825  1  0.58936700  0.36975500  0.09434560  1
  C  1829  1  0.57717600  0.40116700  0.08283660  1
  C  1830  1  0.56329200  0.39144800  0.07134960  1
  C  1831  1  0.56243800  0.37098200  0.07133760  1
  C  1832  1  0.57546000  0.36011000  0.08281360  1
  C  1839  1  0.62832200  0.89915000  0.12972700  1
  C  1840  1  0.61582400  0.88805700  0.14175600  1
  C  1841  1  0.61617200  0.86732000  0.14123300  1
  C  1842  1  0.62902900  0.85728700  0.12863100  1
  C  1843  1  0.64102400  0.86844400  0.11626400  1
  C  1844  1  0.64078100  0.88895000  0.11687600  1
  C  1846  1  0.59103900  0.86630900  0.16525300  1
  C  1847  1  0.59079800  0.88691200  0.16592500  1
  C  1851  1  0.57838400  0.85549500  0.17717800  1
  C  1852  1  0.56549800  0.86522000  0.18977000  1
  C  1853  1  0.56525500  0.88569200  0.19046200  1
  C  1854  1  0.57788500  0.89656300  0.17855600  1
  C  1861  1  0.62919100  0.12789300  0.89913500  1
  C  1862  1  0.61582300  0.11691100  0.88797100  1
  C  1863  1  0.61665200  0.11700800  0.86724300  1
  C  1864  1  0.63065800  0.12838900  0.85727700  1
  C  1865  1  0.64405900  0.13913700  0.86850500  1
  C  1866  1  0.64323700  0.13905300  0.88900200  1
  C  1868  1  0.59011100  0.09455060  0.86609600  1
  C  1869  1  0.58917800  0.09453660  0.88668800  1
  C  1873  1  0.57704300  0.08315260  0.85520600  1
  C  1874  1  0.56305000  0.07173460  0.86485100  1
  C  1875  1  0.56211400  0.07169460  0.88531200  1
  C  1876  1  0.57516200  0.08307360  0.89625600  1
  C  1883  1  0.62836200  0.12963400  0.35754300  1
  C  1884  1  0.61586900  0.14168400  0.36862000  1
  C  1885  1  0.61618200  0.14116800  0.38935800  1
  C  1886  1  0.62900000  0.12854500  0.39941900  1
  C  1887  1  0.64100900  0.11617600  0.38827600  1
  C  1888  1  0.64080000  0.11678300  0.36776800  1
  C  1890  1  0.59107700  0.16522300  0.39031100  1
  C  1891  1  0.59087500  0.16588800  0.36970800  1
  C  1895  1  0.57841800  0.17716900  0.40109500  1
  C  1896  1  0.56556600  0.18977500  0.39134000  1
  C  1897  1  0.56536300  0.19045800  0.37087000  1
  C  1898  1  0.57799700  0.17853200  0.36002800  1
  C  1905  1  0.12852700  0.35748900  0.63019000  1
  C  1906  1  0.11598400  0.36888200  0.64188800  1
  C  1907  1  0.11652100  0.38960500  0.64103900  1
  C  1908  1  0.12960700  0.39933600  0.62842700  1
  C  1909  1  0.14161200  0.38787000  0.61635500  1
  C  1910  1  0.14117300  0.36738100  0.61727900  1
  C  1912  1  0.09114760  0.39120500  0.66478200  1
  C  1913  1  0.09071860  0.37062000  0.66577600  1
  C  1917  1  0.07848960  0.40232100  0.67642200  1
  C  1918  1  0.06541060  0.39291100  0.68905400  1
  C  1919  1  0.06497160  0.37245800  0.69005900  1
  C  1920  1  0.07760460  0.36128800  0.67843700  1
  C  1927  1  0.12904600  0.89905100  0.63101100  1
  C  1928  1  0.14248300  0.88791300  0.64194200  1
  C  1929  1  0.14175300  0.86718100  0.64178500  1
  C  1930  1  0.12777100  0.85718400  0.63040800  1
  C  1931  1  0.11432800  0.86837300  0.61967800  1
  C  1932  1  0.11506200  0.88887000  0.61980900  1
  C  1934  1  0.16833100  0.86608000  0.66419300  1
  C  1935  1  0.16917100  0.88667700  0.66426900  1
  C  1939  1  0.18145600  0.85521600  0.67555100  1
  C  1940  1  0.19541400  0.86489000  0.68698800  1
  C  1941  1  0.19626200  0.88535600  0.68708400  1
  C  1942  1  0.18315800  0.89627300  0.67574500  1
  C  1949  1  0.35753600  0.62836700  0.12954500  1
  C  1950  1  0.36860600  0.61587500  0.14160000  1
  C  1951  1  0.38934500  0.61618900  0.14109500  1
  C  1952  1  0.39941100  0.62900900  0.12847800  1
  C  1953  1  0.38827500  0.64101700  0.11610400  1
  C  1954  1  0.36776700  0.64080700  0.11670000  1
  C  1956  1  0.39028600  0.59108300  0.16514900  1
  C  1957  1  0.36968200  0.59087800  0.16580200  1
  C  1961  1  0.40106300  0.57842300  0.17710100  1
  C  1962  1  0.39130200  0.56557100  0.18970000  1
  C  1963  1  0.37083100  0.56536600  0.19037200  1
  C  1964  1  0.35999500  0.57800000  0.17844000  1
  C  1971  1  0.89913700  0.62919800  0.12780900  1
  C  1972  1  0.88796600  0.61583000  0.11683200  1
  C  1973  1  0.86724000  0.61666100  0.11694100  1
  C  1974  1  0.85728000  0.63066700  0.12832700  1
  C  1975  1  0.86851400  0.64406300  0.13907400  1
  C  1976  1  0.88900900  0.64324500  0.13897400  1
  C  1978  1  0.86608000  0.59011700  0.09448860  1
  C  1979  1  0.88667100  0.58918200  0.09446560  1
  C  1983  1  0.85518300  0.57704800  0.08309760  1
  C  1984  1  0.86482000  0.56305200  0.07167860  1
  C  1985  1  0.88528300  0.56211400  0.07162760  1
  C  1986  1  0.89623300  0.57516300  0.08299960  1
  N  4  1  0.01415500  0.48999200  0.48985100  1
  N  8  1  0.01379100  0.53438600  0.48923400  1
  N  14  1  0.01378500  0.53396500  0.53365000  1
  N  20  1  0.01426000  0.48957000  0.53425000  1
  N  126  1  0.49015200  0.01418800  0.49007500  1
  N  130  1  0.48955000  0.01396200  0.53444900  1
  N  136  1  0.53396500  0.01369300  0.53402300  1
  N  142  1  0.53457100  0.01401600  0.48963600  1
  N  248  1  0.49006700  0.49016200  0.01418100  1
  N  252  1  0.53445000  0.48956000  0.01395100  1
  N  258  1  0.53402300  0.53396600  0.01369300  1
  N  264  1  0.48963000  0.53457200  0.01403100  1
  N  370  1  0.51381100  0.98987100  0.99021400  1
  N  374  1  0.51383500  0.03427300  0.98936800  1
  N  380  1  0.51400800  0.03407600  0.03378000  1
  N  386  1  0.51398900  0.98968700  0.03463100  1
  N  492  1  0.99021300  0.51379800  0.98962800  1
  N  496  1  0.98936500  0.51382400  0.03403200  1
  N  502  1  0.03377600  0.51400300  0.03383400  1
  N  508  1  0.03462700  0.51398300  0.98944200  1
  N  614  1  0.98998900  0.99009200  0.51475400  1
  N  618  1  0.03430100  0.98935400  0.51447200  1
  N  624  1  0.03395500  0.03382000  0.51487400  1
  N  630  1  0.98965300  0.03455900  0.51461300  1
  N  739  1  0.98930600  0.48742500  0.28259500  1
  N  742  1  0.98924900  0.48587800  0.24320900  1
  N  753  1  0.01118100  0.51172700  0.22138800  1
  N  754  1  0.01274100  0.51568900  0.30222400  1
  N  761  1  0.03658900  0.48729400  0.74083200  1
  N  764  1  0.03780900  0.48677800  0.78024000  1
  N  775  1  0.01397200  0.51092000  0.80205500  1
  N  776  1  0.01069900  0.51318900  0.72123300  1
  N  783  1  0.28275800  0.98933000  0.48753100  1
  N  786  1  0.24336900  0.98929500  0.48605200  1
  N  797  1  0.22159500  0.01119800  0.51195900  1
  N  798  1  0.30245800  0.01272000  0.51579200  1
  N  805  1  0.74119500  0.03650200  0.48740900  1
  N  808  1  0.78060500  0.03769900  0.48695800  1
  N  819  1  0.80236800  0.01386700  0.51116500  1
  N  820  1  0.72153600  0.01065100  0.51329700  1
  N  827  1  0.48744000  0.28285400  0.98924200  1
  N  830  1  0.48588800  0.24346800  0.98920400  1
  N  841  1  0.51173800  0.22165300  0.01112700  1
  N  842  1  0.51570900  0.30249700  0.01265400  1
  N  849  1  0.48731900  0.74111200  0.03661700  1
  N  852  1  0.48680100  0.78052000  0.03782000  1
  N  863  1  0.51096400  0.80232100  0.01398500  1
  N  864  1  0.51323100  0.72150600  0.01076200  1
  N  871  1  0.48743800  0.98938700  0.74098000  1
  N  874  1  0.48572600  0.98930400  0.78036000  1
  N  885  1  0.51160500  0.01109300  0.80230100  1
  N  886  1  0.51588900  0.01265900  0.72149400  1
  N  893  1  0.48732500  0.03657300  0.28285300  1
  N  896  1  0.48687800  0.03776100  0.24344500  1
  N  907  1  0.51100700  0.01388700  0.22168600  1
  N  908  1  0.51318900  0.01067900  0.30252300  1
  N  915  1  0.98762700  0.28341000  0.53613600  1
  N  918  1  0.98675900  0.24404000  0.53795700  1
  N  929  1  0.01104500  0.22165000  0.51479900  1
  N  930  1  0.01413800  0.30241000  0.51030700  1
  N  937  1  0.03834500  0.74093200  0.53666500  1
  N  940  1  0.03987600  0.78032700  0.53687000  1
  N  951  1  0.01382400  0.80223100  0.51522900  1
  N  952  1  0.00990700  0.72140000  0.51348000  1
  N  959  1  0.28283400  0.48733200  0.03650500  1
  N  962  1  0.24342500  0.48688300  0.03767100  1
  N  973  1  0.22167700  0.51101200  0.01378400  1
  N  974  1  0.30251600  0.51320100  0.01061900  1
  N  981  1  0.74097000  0.48744500  0.98932700  1
  N  984  1  0.78035000  0.48573100  0.98922600  1
  N  995  1  0.80230200  0.51161000  0.01100600  1
  N  996  1  0.72149700  0.51590100  0.01261000  1
  N  1000  1  0.13049700  0.60633400  0.60619300  1
  N  1004  1  0.13013300  0.65072800  0.60557600  1
  N  1010  1  0.13012700  0.65030700  0.64999200  1
  N  1016  1  0.13060200  0.60591200  0.65059200  1
  N  1122  1  0.60649400  0.13053000  0.60641700  1
  N  1126  1  0.60589200  0.13030400  0.65079100  1
  N  1132  1  0.65030700  0.13003500  0.65036500  1
  N  1138  1  0.65091300  0.13035800  0.60597800  1
  N  1244  1  0.60640900  0.60650400  0.13052300  1
  N  1248  1  0.65079200  0.60590200  0.13029300  1
  N  1254  1  0.65036500  0.65030800  0.13003500  1
  N  1260  1  0.60597200  0.65091400  0.13037300  1
  N  1366  1  0.63015300  0.10621300  0.10655600  1
  N  1370  1  0.63017700  0.15061500  0.10571000  1
  N  1376  1  0.63035000  0.15041800  0.15012200  1
  N  1382  1  0.63033100  0.10602900  0.15097300  1
  N  1488  1  0.10655500  0.63014000  0.10597000  1
  N  1492  1  0.10570700  0.63016600  0.15037400  1
  N  1498  1  0.15011800  0.63034500  0.15017600  1
  N  1504  1  0.15096900  0.63032500  0.10578400  1
  N  1610  1  0.10633100  0.10643400  0.63109600  1
  N  1614  1  0.15064300  0.10569600  0.63081400  1
  N  1620  1  0.15029700  0.15016200  0.63121600  1
  N  1626  1  0.10599500  0.15090100  0.63095500  1
  N  1735  1  0.10564800  0.60376700  0.39893700  1
  N  1738  1  0.10559100  0.60222000  0.35955100  1
  N  1749  1  0.12752300  0.62806900  0.33773000  1
  N  1750  1  0.12908300  0.63203100  0.41856600  1
  N  1757  1  0.15293100  0.60363600  0.85717400  1
  N  1760  1  0.15415100  0.60312000  0.89658200  1
  N  1771  1  0.13031400  0.62726200  0.91839700  1
  N  1772  1  0.12704100  0.62953100  0.83757500  1
  N  1779  1  0.39910000  0.10567200  0.60387300  1
  N  1782  1  0.35971100  0.10563700  0.60239400  1
  N  1793  1  0.33793700  0.12754000  0.62830100  1
  N  1794  1  0.41880000  0.12906200  0.63213400  1
  N  1801  1  0.85753700  0.15284400  0.60375100  1
  N  1804  1  0.89694700  0.15404100  0.60330000  1
  N  1815  1  0.91871000  0.13020900  0.62750700  1
  N  1816  1  0.83787800  0.12699300  0.62963900  1
  N  1823  1  0.60378200  0.39919600  0.10558400  1
  N  1826  1  0.60223000  0.35981000  0.10554600  1
  N  1837  1  0.62808000  0.33799500  0.12746900  1
  N  1838  1  0.63205100  0.41883900  0.12899600  1
  N  1845  1  0.60366100  0.85745400  0.15295900  1
  N  1848  1  0.60314300  0.89686200  0.15416200  1
  N  1859  1  0.62730600  0.91866300  0.13032700  1
  N  1860  1  0.62957300  0.83784800  0.12710400  1
  N  1867  1  0.60378000  0.10572900  0.85732200  1
  N  1870  1  0.60206800  0.10564600  0.89670200  1
  N  1881  1  0.62794700  0.12743500  0.91864300  1
  N  1882  1  0.63223100  0.12900100  0.83783600  1
  N  1889  1  0.60366700  0.15291500  0.39919500  1
  N  1892  1  0.60322000  0.15410300  0.35978700  1
  N  1903  1  0.62734900  0.13022900  0.33802800  1
  N  1904  1  0.62953100  0.12702100  0.41886500  1
  N  1911  1  0.10396900  0.39975200  0.65247800  1
  N  1914  1  0.10310100  0.36038200  0.65429900  1
  N  1925  1  0.12738700  0.33799200  0.63114100  1
  N  1926  1  0.13048000  0.41875200  0.62664900  1
  N  1933  1  0.15468700  0.85727400  0.65300700  1
  N  1936  1  0.15621800  0.89666900  0.65321200  1
  N  1947  1  0.13016600  0.91857300  0.63157100  1
  N  1948  1  0.12624900  0.83774200  0.62982200  1
  N  1955  1  0.39917600  0.60367400  0.15284700  1
  N  1958  1  0.35976700  0.60322500  0.15401300  1
  N  1969  1  0.33801900  0.62735400  0.13012600  1
  N  1970  1  0.41885800  0.62954300  0.12696100  1
  N  1977  1  0.85731200  0.60378700  0.10566900  1
  N  1980  1  0.89669200  0.60207300  0.10556800  1
  N  1991  1  0.91864400  0.62795200  0.12734800  1
  N  1992  1  0.83783900  0.63224300  0.12895200  1
