# generated using pymatgen
data_H14C13
_symmetry_space_group_name_H-M   'P 1'
_cell_length_a   28.15680000
_cell_length_b   28.15680000
_cell_length_c   28.15680000
_cell_angle_alpha   90.00000000
_cell_angle_beta   90.00000000
_cell_angle_gamma   90.00000000
_symmetry_Int_Tables_number   1
_chemical_formula_structural   H14C13
_chemical_formula_sum   'H448 C416'
_cell_volume   22322.86269928
_cell_formula_units_Z   32
loop_
 _symmetry_equiv_pos_site_id
 _symmetry_equiv_pos_as_xyz
  1  'x, y, z'
loop_
 _atom_site_type_symbol
 _atom_site_label
 _atom_site_symmetry_multiplicity
 _atom_site_fract_x
 _atom_site_fract_y
 _atom_site_fract_z
 _atom_site_occupancy
  H  5  1  0.16759000  0.14316500  0.24070000  1
  H  6  1  0.22176500  0.13403600  0.21594700  1
  H  9  1  0.21691300  0.10810500  0.11420800  1
  H  10  1  0.16064600  0.09265500  0.09451200  1
  H  11  1  0.24106700  0.18545000  0.13498800  1
  H  12  1  0.20901600  0.23629200  0.12519700  1
  H  15  1  0.09892800  0.15302500  0.08228300  1
  H  16  1  0.10858800  0.21276900  0.09182500  1
  H  18  1  0.09031200  0.09748400  0.14724800  1
  H  19  1  0.09626900  0.11395100  0.20610600  1
  H  21  1  0.12564700  0.24469700  0.16594500  1
  H  22  1  0.11814900  0.21887500  0.22050100  1
  H  27  1  0.82750500  0.85046200  0.24060700  1
  H  28  1  0.77347900  0.85924100  0.21535600  1
  H  31  1  0.77811700  0.88520300  0.11465300  1
  H  32  1  0.83409700  0.90184900  0.09474300  1
  H  33  1  0.75495100  0.80774400  0.13461600  1
  H  34  1  0.78771300  0.75745800  0.12433100  1
  H  37  1  0.89696900  0.84252400  0.08249300  1
  H  38  1  0.88824300  0.78261000  0.09131300  1
  H  40  1  0.90471900  0.89751600  0.14750000  1
  H  41  1  0.89894100  0.88099100  0.20628200  1
  H  43  1  0.87113200  0.75002100  0.16508900  1
  H  44  1  0.87791500  0.77488200  0.22010700  1
  H  49  1  0.82672400  0.14338000  0.75132400  1
  H  50  1  0.77246700  0.13482900  0.77616000  1
  H  53  1  0.77659000  0.11020200  0.87748900  1
  H  54  1  0.83256200  0.09422800  0.89792500  1
  H  55  1  0.75317800  0.18762700  0.85643200  1
  H  56  1  0.78597700  0.23811300  0.86583300  1
  H  59  1  0.89487000  0.15452900  0.90999600  1
  H  60  1  0.88554400  0.21426100  0.89974700  1
  H  62  1  0.90349700  0.09833900  0.84569900  1
  H  63  1  0.89793900  0.11414300  0.78661600  1
  H  65  1  0.86908600  0.24542800  0.82525000  1
  H  66  1  0.87660800  0.21900100  0.77097500  1
  H  71  1  0.16686400  0.85037300  0.75632500  1
  H  72  1  0.22086100  0.85955000  0.78145900  1
  H  75  1  0.21590100  0.88619800  0.88258200  1
  H  76  1  0.15970700  0.90247400  0.90193400  1
  H  77  1  0.23955400  0.80877100  0.86252700  1
  H  78  1  0.20725300  0.75825700  0.87303200  1
  H  81  1  0.09726700  0.84299000  0.91436100  1
  H  82  1  0.10624500  0.78308900  0.90590500  1
  H  84  1  0.08951800  0.89774000  0.84902400  1
  H  85  1  0.09542200  0.88078500  0.79039500  1
  H  87  1  0.12370400  0.75012800  0.83228200  1
  H  88  1  0.11677700  0.77474000  0.77718000  1
  H  93  1  0.12941600  0.20622200  0.76668100  1
  H  94  1  0.13910900  0.23739000  0.81766700  1
  H  97  1  0.11889300  0.21287000  0.89444100  1
  H  98  1  0.10341800  0.15549100  0.91051100  1
  H  99  1  0.22256900  0.22094500  0.86574400  1
  H  100  1  0.24784000  0.16698000  0.85680900  1
  H  103  1  0.15720500  0.08809900  0.90547900  1
  H  104  1  0.21548600  0.09466300  0.88818600  1
  H  106  1  0.09108600  0.09377400  0.85012500  1
  H  107  1  0.09945600  0.10506100  0.79049400  1
  H  109  1  0.22854900  0.11678000  0.78441100  1
  H  110  1  0.17381100  0.12223600  0.75737300  1
  H  115  1  0.86375900  0.78829900  0.76675200  1
  H  116  1  0.85319000  0.75689000  0.81745800  1
  H  119  1  0.87321700  0.78090900  0.89428400  1
  H  120  1  0.88936900  0.83803200  0.91091300  1
  H  121  1  0.76964000  0.77456900  0.86554900  1
  H  122  1  0.74524100  0.82881900  0.85637200  1
  H  125  1  0.83679200  0.90616800  0.90580600  1
  H  126  1  0.77841600  0.90064500  0.88865900  1
  H  128  1  0.90280500  0.89994900  0.85061100  1
  H  129  1  0.89439500  0.88883600  0.79087400  1
  H  131  1  0.76546300  0.87860100  0.78393800  1
  H  132  1  0.82044100  0.87277300  0.75762500  1
  H  137  1  0.13026800  0.78701400  0.23020900  1
  H  138  1  0.14131200  0.75601200  0.17938600  1
  H  141  1  0.12158900  0.78052900  0.10269000  1
  H  142  1  0.10588500  0.83785800  0.08628900  1
  H  143  1  0.22505200  0.77363200  0.13192900  1
  H  144  1  0.24966200  0.82759000  0.14172100  1
  H  147  1  0.15919500  0.90571000  0.09197800  1
  H  148  1  0.21744100  0.89931300  0.10965800  1
  H  150  1  0.09258600  0.89949800  0.14656000  1
  H  151  1  0.10046400  0.88830700  0.20633200  1
  H  153  1  0.22928200  0.87713400  0.21452000  1
  H  154  1  0.17396700  0.87170400  0.24002400  1
  H  159  1  0.86527200  0.20632900  0.22525000  1
  H  160  1  0.85505100  0.23739800  0.17431900  1
  H  163  1  0.87557100  0.21310200  0.09758700  1
  H  164  1  0.89123700  0.15584400  0.08136900  1
  H  165  1  0.77177100  0.22053300  0.12647700  1
  H  166  1  0.74683200  0.16642600  0.13537500  1
  H  169  1  0.83786800  0.08824000  0.08620800  1
  H  170  1  0.77955600  0.09425000  0.10335900  1
  H  172  1  0.90386300  0.09402000  0.14150000  1
  H  173  1  0.89555900  0.10516600  0.20114700  1
  H  175  1  0.76645800  0.11627300  0.20771200  1
  H  176  1  0.82138200  0.12174200  0.23434200  1
  H  181  1  0.70517900  0.62395200  0.71595500  1
  H  182  1  0.73637600  0.64546700  0.66674100  1
  H  185  1  0.70145700  0.62803300  0.58413900  1
  H  186  1  0.64685600  0.59995100  0.57666700  1
  H  187  1  0.70581500  0.71514800  0.61917200  1
  H  188  1  0.65128500  0.74169600  0.63162000  1
  H  191  1  0.57138600  0.64126600  0.59889900  1
  H  192  1  0.57176600  0.69869800  0.62079800  1
  H  194  1  0.60123600  0.57339200  0.64922500  1
  H  195  1  0.62405500  0.58501700  0.70651800  1
  H  197  1  0.60655300  0.71485700  0.71103200  1
  H  198  1  0.62672900  0.66524600  0.74192300  1
  H  203  1  0.28780600  0.37393100  0.71677100  1
  H  204  1  0.25636700  0.35168800  0.66795900  1
  H  207  1  0.29115800  0.36615700  0.58553100  1
  H  208  1  0.34578200  0.39443400  0.57666700  1
  H  209  1  0.28688700  0.28106600  0.62162600  1
  H  210  1  0.34103900  0.25418100  0.63463900  1
  H  213  1  0.42201500  0.35337700  0.60088100  1
  H  214  1  0.42055500  0.29643200  0.62440700  1
  H  216  1  0.39175600  0.42286400  0.64888400  1
  H  217  1  0.36852900  0.41302300  0.70638700  1
  H  219  1  0.38612700  0.28344600  0.71481500  1
  H  220  1  0.36516200  0.33368900  0.74390900  1
  H  225  1  0.28570200  0.62239600  0.28116000  1
  H  226  1  0.25993300  0.64308400  0.33364900  1
  H  229  1  0.30067500  0.62010200  0.41261800  1
  H  230  1  0.35523600  0.59113900  0.41349900  1
  H  231  1  0.29646500  0.71241700  0.37915900  1
  H  232  1  0.35229700  0.73499400  0.36463300  1
  H  235  1  0.42846100  0.63230200  0.38561500  1
  H  236  1  0.42609200  0.69266700  0.36915800  1
  H  238  1  0.39467200  0.56835600  0.33645300  1
  H  239  1  0.36832300  0.58268700  0.28142700  1
  H  241  1  0.38628300  0.71276500  0.28127600  1
  H  242  1  0.36391500  0.66417700  0.25002500  1
  H  247  1  0.70823700  0.37183900  0.27768500  1
  H  248  1  0.73840700  0.34956600  0.32723200  1
  H  251  1  0.70260100  0.36422400  0.40875000  1
  H  252  1  0.64798900  0.39327600  0.41652400  1
  H  253  1  0.70650000  0.27886800  0.37334100  1
  H  254  1  0.65189200  0.25273800  0.35980300  1
  H  257  1  0.57099100  0.35087000  0.39066600  1
  H  258  1  0.57527100  0.29350900  0.36710800  1
  H  260  1  0.60287400  0.42087200  0.34389100  1
  H  261  1  0.62641300  0.41144600  0.28640900  1
  H  263  1  0.60951900  0.28139900  0.27796100  1
  H  264  1  0.63087000  0.33174300  0.24917100  1
  H  269  1  0.64719000  0.65548300  0.25313800  1
  H  270  1  0.62577800  0.70742400  0.27929700  1
  H  273  1  0.58617100  0.70537100  0.36128400  1
  H  274  1  0.57132500  0.65028300  0.38739500  1
  H  275  1  0.66677300  0.73801700  0.35912400  1
  H  276  1  0.71521200  0.70641200  0.38152800  1
  H  279  1  0.63763600  0.59992900  0.42127300  1
  H  280  1  0.69684400  0.62006000  0.41814400  1
  H  282  1  0.59599100  0.57379400  0.34724600  1
  H  283  1  0.62467300  0.57568700  0.29265300  1
  H  285  1  0.73950800  0.62459100  0.34440600  1
  H  286  1  0.71626000  0.61045300  0.28867300  1
  H  291  1  0.35028600  0.33348700  0.25464500  1
  H  292  1  0.37205200  0.28311200  0.28362400  1
  H  295  1  0.41195400  0.29012900  0.36561000  1
  H  296  1  0.42356400  0.34689100  0.38971000  1
  H  297  1  0.33203000  0.25453100  0.36218600  1
  H  298  1  0.28237500  0.28453700  0.38377200  1
  H  301  1  0.35383100  0.39574400  0.42187700  1
  H  302  1  0.29639100  0.37183500  0.41720600  1
  H  304  1  0.39721100  0.42030300  0.34642900  1
  H  305  1  0.36933900  0.41480500  0.29149500  1
  H  307  1  0.25511700  0.36609300  0.34228900  1
  H  308  1  0.28023500  0.37890700  0.28711400  1
  H  313  1  0.64543200  0.33520200  0.74061300  1
  H  314  1  0.62264200  0.28568000  0.71091500  1
  H  317  1  0.57963900  0.29585500  0.62767800  1
  H  318  1  0.56925800  0.35514500  0.60986000  1
  H  319  1  0.65883500  0.25962200  0.63051500  1
  H  320  1  0.70880900  0.28876200  0.60908900  1
  H  323  1  0.63891100  0.40271600  0.57458200  1
  H  324  1  0.69562200  0.37646700  0.57702600  1
  H  326  1  0.59737600  0.42513700  0.65321700  1
  H  327  1  0.62706700  0.41694000  0.70690900  1
  H  329  1  0.73881200  0.36920700  0.65125600  1
  H  330  1  0.71494600  0.38150600  0.70717500  1
  H  335  1  0.34753800  0.65818500  0.74084700  1
  H  336  1  0.36814200  0.71001300  0.71376700  1
  H  339  1  0.40656600  0.70780000  0.63103400  1
  H  340  1  0.42105300  0.65280100  0.60526400  1
  H  341  1  0.32480300  0.74010500  0.63489400  1
  H  342  1  0.27667300  0.70744200  0.61276500  1
  H  345  1  0.35317100  0.60207500  0.57246200  1
  H  346  1  0.29415900  0.62321700  0.57674500  1
  H  348  1  0.39673900  0.57607400  0.64608200  1
  H  349  1  0.36899400  0.57840700  0.70125100  1
  H  351  1  0.25311900  0.62613600  0.65193500  1
  H  352  1  0.27805600  0.61229200  0.70700800  1
  H  358  1  0.27713500  0.18842200  0.21390300  1
  H  359  1  0.32207800  0.22715800  0.27049200  1
  H  362  1  0.17223200  0.30733100  0.17861900  1
  H  363  1  0.17558400  0.34543300  0.22692500  1
  H  364  1  0.13004700  0.30285700  0.22605900  1
  H  366  1  0.20718900  0.30293100  0.35551300  1
  H  367  1  0.15857700  0.28562400  0.32168600  1
  H  368  1  0.18018000  0.34418000  0.31611600  1
  H  374  1  0.71959100  0.80466100  0.21598100  1
  H  375  1  0.67586800  0.76459700  0.27232300  1
  H  378  1  0.82375800  0.68713000  0.17286000  1
  H  379  1  0.82075000  0.64644400  0.21901800  1
  H  380  1  0.86607500  0.68921200  0.22038000  1
  H  382  1  0.79206100  0.68432800  0.34959500  1
  H  383  1  0.84065600  0.69456400  0.31306300  1
  H  384  1  0.81128500  0.63948600  0.30910400  1
  H  390  1  0.71762000  0.18946700  0.77677500  1
  H  391  1  0.67232400  0.22877300  0.72088400  1
  H  394  1  0.82376500  0.30850100  0.81149500  1
  H  395  1  0.82137800  0.34603300  0.76274300  1
  H  396  1  0.86563400  0.30221100  0.76392500  1
  H  398  1  0.78543700  0.30517900  0.63553700  1
  H  399  1  0.83449800  0.28643100  0.66800500  1
  H  400  1  0.81422900  0.34536000  0.67470400  1
  H  406  1  0.27504000  0.80519800  0.78108300  1
  H  407  1  0.31776100  0.76632600  0.72311800  1
  H  410  1  0.17169700  0.68756700  0.82426600  1
  H  411  1  0.17526200  0.64687700  0.77811400  1
  H  412  1  0.12903600  0.68875000  0.77707300  1
  H  414  1  0.20073800  0.68609000  0.64667800  1
  H  415  1  0.15272700  0.69707800  0.68378100  1
  H  416  1  0.18132600  0.64153900  0.68735100  1
  H  422  1  0.21386100  0.27670200  0.81045800  1
  H  423  1  0.26774300  0.32381500  0.77042800  1
  H  426  1  0.18613900  0.16802300  0.69413800  1
  H  427  1  0.23507700  0.12776300  0.69978400  1
  H  428  1  0.23485600  0.17295200  0.65674300  1
  H  430  1  0.36162100  0.20969600  0.69842800  1
  H  431  1  0.32258600  0.17761400  0.66103400  1
  H  432  1  0.33077400  0.16136100  0.72105500  1
  H  438  1  0.77562800  0.71932100  0.81083000  1
  H  439  1  0.72022000  0.67408200  0.77090800  1
  H  442  1  0.81085500  0.82653500  0.69427200  1
  H  443  1  0.76240500  0.86763400  0.69817900  1
  H  444  1  0.76343900  0.82248700  0.65512700  1
  H  446  1  0.63447200  0.78914800  0.69424100  1
  H  447  1  0.67478500  0.81717000  0.65470100  1
  H  448  1  0.66728800  0.83768000  0.71344700  1
  H  454  1  0.22066300  0.71858300  0.18579200  1
  H  455  1  0.27623400  0.67373400  0.22561200  1
  H  458  1  0.17886200  0.82322200  0.30252200  1
  H  459  1  0.22744300  0.86434500  0.30179600  1
  H  460  1  0.22414800  0.81859100  0.34407600  1
  H  462  1  0.35480400  0.78953200  0.30715600  1
  H  463  1  0.31435300  0.80551400  0.35346400  1
  H  464  1  0.31779800  0.83828700  0.30038400  1
  H  470  1  0.77864300  0.27578500  0.18162700  1
  H  471  1  0.72450300  0.32193300  0.22244000  1
  H  474  1  0.81169300  0.16770100  0.29787400  1
  H  475  1  0.76297300  0.12698000  0.29339000  1
  H  476  1  0.76393600  0.17196800  0.33659600  1
  H  478  1  0.63562200  0.20692000  0.29604800  1
  H  479  1  0.67504100  0.17751500  0.33549200  1
  H  480  1  0.66790200  0.15827000  0.27628000  1
  H  486  1  0.03239900  0.20950600  0.09754500  1
  H  487  1  0.95309100  0.20916800  0.09833200  1
  H  490  1  0.08240600  0.16782200  0.25865100  1
  H  491  1  0.03549700  0.13234000  0.27274400  1
  H  492  1  0.03321200  0.19462500  0.28299500  1
  H  494  1  0.90636700  0.15498700  0.25739400  1
  H  495  1  0.95193000  0.18564600  0.28409300  1
  H  496  1  0.95714700  0.12440800  0.26935700  1
  H  502  1  0.96459100  0.78673700  0.09844100  1
  H  503  1  0.04391300  0.78533400  0.10131600  1
  H  506  1  0.91153800  0.82715000  0.25892700  1
  H  507  1  0.95851100  0.86215000  0.27414800  1
  H  508  1  0.95992400  0.79980600  0.28423900  1
  H  510  1  0.08773600  0.83763400  0.26162000  1
  H  511  1  0.04126900  0.80728600  0.28711200  1
  H  512  1  0.03710800  0.86872800  0.27290500  1
  H  518  1  0.96207300  0.20928500  0.89464700  1
  H  519  1  0.04139500  0.20852400  0.89390100  1
  H  522  1  0.91198900  0.16722000  0.73350600  1
  H  523  1  0.95899700  0.13181800  0.71965900  1
  H  524  1  0.96108900  0.19405000  0.70901800  1
  H  526  1  0.08804500  0.15509300  0.73460700  1
  H  527  1  0.04234800  0.18560100  0.70801300  1
  H  528  1  0.03736600  0.12432700  0.72269200  1
  H  534  1  0.03003400  0.78605800  0.89820900  1
  H  535  1  0.95073300  0.78482300  0.89536100  1
  H  538  1  0.08307700  0.82658900  0.73788500  1
  H  539  1  0.03628000  0.86177000  0.72251800  1
  H  540  1  0.03452700  0.79940200  0.71268700  1
  H  542  1  0.90694200  0.83833400  0.73539200  1
  H  543  1  0.95324700  0.80789300  0.70973900  1
  H  544  1  0.95772900  0.86924300  0.72424700  1
  H  550  1  0.10738800  0.04077200  0.21405700  1
  H  551  1  0.10732100  0.96232800  0.20950200  1
  H  554  1  0.26522800  0.09317700  0.17215100  1
  H  555  1  0.28190900  0.04679500  0.13590800  1
  H  556  1  0.29021400  0.04417900  0.19846400  1
  H  558  1  0.26745400  0.91606600  0.16389600  1
  H  559  1  0.29186100  0.96363500  0.19297600  1
  H  560  1  0.28127800  0.96557800  0.13073300  1
  H  566  1  0.10835900  0.95312300  0.77944500  1
  H  567  1  0.10779500  0.03165500  0.78484000  1
  H  570  1  0.26463600  0.90089400  0.82461400  1
  H  571  1  0.28104100  0.94680100  0.86168800  1
  H  572  1  0.28988600  0.95026400  0.79925200  1
  H  574  1  0.26650900  0.07792100  0.83521900  1
  H  575  1  0.29150500  0.03054000  0.80646200  1
  H  576  1  0.27957400  0.02817700  0.86844000  1
  H  582  1  0.88624000  0.95374800  0.21569600  1
  H  583  1  0.88765000  0.03190100  0.20690400  1
  H  586  1  0.72963500  0.90116400  0.17291800  1
  H  587  1  0.71306700  0.94594900  0.13456100  1
  H  588  1  0.70483500  0.95145000  0.19693800  1
  H  590  1  0.72870500  0.07772600  0.15622600  1
  H  591  1  0.70340000  0.03129300  0.18613800  1
  H  592  1  0.71560300  0.02708600  0.12431300  1
  H  598  1  0.88672000  0.04090800  0.77946300  1
  H  599  1  0.88785600  0.96281900  0.78781300  1
  H  602  1  0.72879300  0.09344800  0.81917700  1
  H  603  1  0.71205900  0.04855000  0.85724900  1
  H  604  1  0.70429800  0.04321300  0.79479200  1
  H  606  1  0.72773500  0.91692200  0.83547800  1
  H  607  1  0.70283900  0.96323000  0.80496000  1
  H  608  1  0.71421800  0.96763800  0.86693400  1
  H  614  1  0.22647600  0.11463500  0.03940100  1
  H  615  1  0.23003500  0.11241300  0.95983200  1
  H  618  1  0.15967700  0.26871500  0.08064200  1
  H  619  1  0.12832400  0.27858300  0.02922500  1
  H  620  1  0.18891200  0.29568300  0.03427500  1
  H  622  1  0.17688100  0.26458900  0.90413300  1
  H  623  1  0.20095100  0.29212500  0.95322900  1
  H  624  1  0.13899300  0.28076100  0.94925200  1
  H  630  1  0.76694800  0.11615800  0.95232400  1
  H  631  1  0.76440500  0.11297600  0.03194000  1
  H  634  1  0.83427400  0.27001300  0.91191800  1
  H  635  1  0.86598900  0.27942800  0.96324500  1
  H  636  1  0.80545700  0.29683300  0.95862400  1
  H  638  1  0.81741100  0.26471600  0.08847700  1
  H  639  1  0.79318300  0.29253700  0.03961000  1
  H  640  1  0.85518600  0.28135700  0.04338400  1
  H  646  1  0.22403400  0.88133600  0.95773300  1
  H  647  1  0.23049600  0.88253200  0.03710100  1
  H  650  1  0.15652600  0.72690000  0.91702900  1
  H  651  1  0.12689800  0.71717300  0.96949200  1
  H  652  1  0.18704100  0.69932300  0.96216100  1
  H  654  1  0.18103400  0.72928700  0.09266800  1
  H  655  1  0.20412400  0.70256900  0.04256500  1
  H  656  1  0.14213800  0.71273700  0.04862300  1
  H  662  1  0.76913200  0.88020600  0.03976000  1
  H  663  1  0.76352000  0.88211700  0.96030000  1
  H  666  1  0.83808100  0.72632500  0.07975900  1
  H  667  1  0.86800300  0.71701300  0.02735400  1
  H  668  1  0.80791100  0.69885400  0.03432900  1
  H  670  1  0.81395600  0.72968800  0.90403300  1
  H  671  1  0.79090300  0.70265100  0.95397200  1
  H  672  1  0.85288400  0.71289700  0.94802300  1
  H  678  1  0.53234400  0.71962000  0.68556400  1
  H  679  1  0.45136100  0.72325700  0.69260700  1
  H  682  1  0.56680100  0.57199300  0.75870800  1
  H  683  1  0.55361700  0.54126200  0.70439400  1
  H  684  1  0.51644000  0.53728000  0.75239300  1
  H  686  1  0.40540500  0.59877200  0.76965000  1
  H  687  1  0.46046400  0.58260500  0.79194700  1
  H  688  1  0.43273000  0.54624400  0.74838700  1
  H  694  1  0.46052400  0.27797600  0.68903000  1
  H  695  1  0.54158500  0.27519800  0.69444300  1
  H  698  1  0.42533600  0.42776500  0.75877900  1
  H  699  1  0.43882100  0.45665300  0.70353500  1
  H  700  1  0.47587100  0.46214000  0.75145200  1
  H  702  1  0.58574500  0.39950200  0.77276100  1
  H  703  1  0.53066400  0.41781700  0.79321800  1
  H  704  1  0.56036900  0.45222100  0.74937100  1
  H  710  1  0.46133800  0.71709800  0.30211800  1
  H  711  1  0.54251500  0.72046500  0.29893200  1
  H  714  1  0.42655800  0.57289900  0.22758500  1
  H  715  1  0.44088100  0.53865800  0.27926200  1
  H  716  1  0.47716000  0.53793000  0.23013800  1
  H  718  1  0.59176800  0.59540500  0.22345000  1
  H  719  1  0.53784900  0.58095700  0.19781500  1
  H  720  1  0.56191400  0.54334600  0.24252300  1
  H  726  1  0.53502200  0.27547200  0.30238800  1
  H  727  1  0.45375900  0.27258900  0.30115700  1
  H  730  1  0.56750400  0.42709400  0.23550700  1
  H  731  1  0.55479600  0.45484900  0.29141100  1
  H  732  1  0.51657500  0.46072000  0.24448400  1
  H  734  1  0.40759600  0.39586900  0.22388000  1
  H  735  1  0.46233900  0.41439000  0.20259600  1
  H  736  1  0.43272700  0.44918100  0.24612800  1
  H  742  1  0.68784100  0.54151700  0.72523100  1
  H  743  1  0.68900600  0.45956200  0.72098700  1
  H  746  1  0.76784600  0.59053200  0.60464600  1
  H  747  1  0.74910800  0.56407300  0.55057000  1
  H  748  1  0.79111900  0.53601600  0.58852200  1
  H  750  1  0.75596600  0.42708300  0.57429800  1
  H  751  1  0.75658100  0.47927700  0.54193300  1
  H  752  1  0.70517600  0.44603400  0.54047700  1
  H  758  1  0.69205300  0.45489900  0.27066500  1
  H  759  1  0.68954900  0.53630400  0.27689900  1
  H  762  1  0.76892200  0.40865400  0.39336500  1
  H  763  1  0.74268000  0.42762700  0.44738700  1
  H  764  1  0.78467700  0.46352200  0.41707500  1
  H  766  1  0.74473300  0.56090500  0.43757100  1
  H  767  1  0.73053400  0.50808000  0.46620300  1
  H  768  1  0.68536200  0.54748700  0.45666700  1
  H  774  1  0.30359400  0.45643700  0.72333500  1
  H  775  1  0.30500200  0.53784900  0.71762400  1
  H  778  1  0.22519300  0.40963100  0.60181500  1
  H  779  1  0.25004600  0.42954800  0.54743800  1
  H  780  1  0.20796700  0.46431700  0.57896800  1
  H  782  1  0.24545400  0.56370000  0.55987900  1
  H  783  1  0.25809400  0.51131900  0.52980400  1
  H  784  1  0.30381200  0.55050600  0.53775600  1
  H  790  1  0.30589700  0.53665500  0.26849200  1
  H  791  1  0.30589800  0.45484900  0.27418600  1
  H  794  1  0.22994500  0.58868900  0.39160300  1
  H  795  1  0.24843900  0.56065300  0.44476300  1
  H  796  1  0.20518900  0.53442500  0.40693500  1
  H  798  1  0.23882400  0.42526100  0.42200800  1
  H  799  1  0.24078200  0.47741200  0.45434500  1
  H  800  1  0.29107600  0.44248600  0.45444800  1
  H  806  1  0.71770900  0.68790100  0.53903100  1
  H  807  1  0.71778000  0.68474000  0.45772900  1
  H  810  1  0.58976800  0.76379400  0.58358200  1
  H  811  1  0.53986600  0.74437000  0.55056300  1
  H  812  1  0.57878700  0.78954300  0.52957700  1
  H  814  1  0.58160000  0.76391100  0.41769300  1
  H  815  1  0.54194000  0.76256500  0.46503500  1
  H  816  1  0.54306200  0.71453400  0.42755200  1
  H  822  1  0.28471100  0.68586200  0.45158200  1
  H  823  1  0.27679500  0.69018500  0.53235400  1
  H  826  1  0.45714000  0.72146300  0.43444200  1
  H  827  1  0.46071600  0.65936400  0.44884000  1
  H  828  1  0.47691800  0.70124800  0.48964700  1
  H  830  1  0.40219800  0.76689400  0.57388200  1
  H  831  1  0.43416500  0.77168500  0.52108500  1
  H  832  1  0.45395100  0.73191900  0.56557500  1
  H  838  1  0.71520500  0.30099900  0.45513300  1
  H  839  1  0.71185300  0.30936900  0.53572500  1
  H  842  1  0.58838000  0.22811100  0.42166700  1
  H  843  1  0.53691400  0.26247300  0.43198400  1
  H  844  1  0.55918300  0.22408200  0.47632900  1
  H  846  1  0.53643100  0.28373000  0.56348700  1
  H  847  1  0.51739200  0.29868500  0.50680100  1
  H  848  1  0.53807600  0.34383600  0.54196800  1
  H  854  1  0.27624500  0.30548200  0.54020300  1
  H  855  1  0.27785500  0.30835700  0.45894000  1
  H  858  1  0.40196300  0.23019300  0.58612100  1
  H  859  1  0.45368800  0.25102200  0.55722600  1
  H  860  1  0.41672000  0.20670400  0.53164800  1
  H  862  1  0.42223500  0.23595100  0.42275400  1
  H  863  1  0.45878100  0.24080400  0.47211300  1
  H  864  1  0.45549500  0.28894700  0.43477600  1
  C  1  1  0.18485500  0.19798700  0.18753900  1
  C  2  1  0.20481000  0.19948900  0.13556900  1
  C  3  1  0.18632800  0.14483700  0.20664600  1
  C  4  1  0.16438200  0.10763600  0.17098500  1
  C  7  1  0.17986200  0.11711600  0.11795100  1
  C  8  1  0.17334900  0.16996300  0.09976700  1
  C  13  1  0.11793700  0.17808900  0.10524200  1
  C  14  1  0.09885700  0.17413100  0.15811400  1
  C  17  1  0.11001400  0.12110200  0.17116200  1
  C  20  1  0.13051100  0.21139300  0.18497900  1
  C  23  1  0.81117500  0.79558000  0.18707400  1
  C  24  1  0.79141400  0.79421300  0.13506500  1
  C  25  1  0.80905800  0.84872200  0.20641300  1
  C  26  1  0.83075500  0.88642100  0.17110300  1
  C  29  1  0.81538000  0.87692500  0.11810800  1
  C  30  1  0.82265700  0.82437600  0.09956100  1
  C  35  1  0.87825300  0.81696000  0.10513100  1
  C  36  1  0.89701200  0.82076100  0.15823100  1
  C  39  1  0.88527100  0.87363900  0.17136400  1
  C  42  1  0.86567300  0.78290100  0.18462300  1
  C  45  1  0.80964100  0.19895400  0.80382700  1
  C  46  1  0.78962800  0.20115300  0.85582100  1
  C  47  1  0.80795000  0.14554500  0.78532700  1
  C  48  1  0.82963600  0.10855000  0.82138600  1
  C  51  1  0.81381000  0.11870900  0.87412600  1
  C  52  1  0.82060800  0.17156200  0.89207200  1
  C  57  1  0.87608600  0.17944200  0.88669500  1
  C  58  1  0.89540700  0.17484000  0.83393000  1
  C  61  1  0.88404200  0.12177000  0.82139600  1
  C  64  1  0.86406400  0.21198000  0.80652200  1
  C  67  1  0.18343300  0.79590700  0.81015200  1
  C  68  1  0.20320300  0.79493400  0.86216100  1
  C  69  1  0.18534400  0.84890300  0.79051900  1
  C  70  1  0.16355300  0.88665900  0.82564400  1
  C  73  1  0.17875200  0.87757400  0.87882100  1
  C  74  1  0.17170500  0.82501500  0.89754500  1
  C  79  1  0.11613900  0.81738300  0.89190100  1
  C  80  1  0.09749500  0.82087100  0.83874600  1
  C  83  1  0.10907200  0.87374600  0.82536700  1
  C  86  1  0.12899500  0.78296900  0.81262400  1
  C  89  1  0.19302900  0.18277700  0.80329100  1
  C  90  1  0.21345600  0.18519000  0.85566900  1
  C  91  1  0.14041800  0.20135500  0.80314800  1
  C  92  1  0.10592300  0.16874600  0.83315200  1
  C  95  1  0.12501500  0.17605000  0.88544100  1
  C  96  1  0.17895300  0.16276800  0.89351700  1
  C  101  1  0.18032600  0.10787700  0.88118600  1
  C  102  1  0.16649300  0.09594400  0.82824700  1
  C  105  1  0.11319000  0.11378000  0.82505800  1
  C  108  1  0.19237200  0.12814200  0.79077500  1
  C  111  1  0.80013000  0.81224700  0.80306300  1
  C  112  1  0.77935300  0.81010200  0.85539200  1
  C  113  1  0.85253300  0.79304100  0.80316600  1
  C  114  1  0.88723100  0.82517500  0.83353900  1
  C  117  1  0.86767300  0.81790200  0.88557600  1
  C  118  1  0.81395200  0.83187000  0.89350700  1
  C  123  1  0.81333400  0.88685100  0.88146700  1
  C  124  1  0.82741600  0.89869500  0.82855300  1
  C  127  1  0.88053600  0.88022400  0.82546300  1
  C  130  1  0.80146100  0.86689500  0.79076800  1
  C  133  1  0.19438000  0.81101900  0.19467200  1
  C  134  1  0.21543100  0.80907600  0.14235200  1
  C  135  1  0.14190000  0.79206100  0.19396800  1
  C  136  1  0.10756100  0.82461000  0.16360200  1
  C  139  1  0.12732800  0.81745800  0.11162600  1
  C  140  1  0.18117700  0.83115900  0.10402000  1
  C  145  1  0.18222000  0.88599900  0.11642200  1
  C  146  1  0.16778700  0.89777600  0.16921800  1
  C  149  1  0.11454200  0.87960600  0.17185400  1
  C  152  1  0.19329300  0.86570200  0.20714100  1
  C  155  1  0.80166700  0.18240800  0.18885900  1
  C  156  1  0.78111100  0.18483200  0.13649700  1
  C  157  1  0.85411300  0.20134500  0.18884600  1
  C  158  1  0.88867300  0.16889300  0.15876100  1
  C  161  1  0.86955900  0.17624700  0.10650000  1
  C  162  1  0.81565700  0.16276100  0.09844600  1
  C  167  1  0.81457000  0.10775800  0.11053600  1
  C  168  1  0.82847100  0.09575800  0.16349800  1
  C  171  1  0.88169400  0.11385800  0.16664500  1
  C  174  1  0.80258000  0.12775100  0.20112200  1
  C  177  1  0.67455100  0.68984400  0.68566700  1
  C  178  1  0.67011100  0.70836500  0.63293400  1
  C  179  1  0.70067900  0.64017200  0.68119200  1
  C  180  1  0.67294900  0.60322500  0.65028000  1
  C  183  1  0.66654900  0.62468400  0.59936500  1
  C  184  1  0.64198300  0.67492700  0.59877500  1
  C  189  1  0.59144500  0.66591300  0.62135600  1
  C  190  1  0.59246400  0.64675300  0.67435900  1
  C  193  1  0.62102200  0.59896000  0.67081800  1
  C  196  1  0.62373900  0.68062400  0.70631200  1
  C  199  1  0.31810000  0.30731500  0.68781900  1
  C  200  1  0.32259300  0.28773500  0.63546300  1
  C  201  1  0.29211800  0.35705000  0.68228200  1
  C  202  1  0.31999400  0.39323300  0.65045000  1
  C  205  1  0.32630400  0.37034400  0.60023100  1
  C  206  1  0.35112100  0.32038800  0.60100600  1
  C  211  1  0.40146600  0.32961400  0.62384200  1
  C  212  1  0.40019100  0.35030500  0.67623800  1
  C  215  1  0.37178200  0.39801000  0.67113100  1
  C  218  1  0.36867500  0.31729200  0.70879800  1
  C  221  1  0.32067100  0.68681400  0.31088800  1
  C  222  1  0.33070300  0.70313000  0.36366000  1
  C  223  1  0.29396300  0.63743400  0.31579100  1
  C  224  1  0.32345500  0.59871800  0.34256600  1
  C  227  1  0.33395600  0.61723600  0.39396500  1
  C  228  1  0.35914600  0.66684800  0.39533600  1
  C  233  1  0.40707400  0.65921900  0.36771200  1
  C  234  1  0.40239600  0.64292100  0.31419300  1
  C  237  1  0.37368600  0.59503200  0.31753200  1
  C  240  1  0.36949100  0.67823000  0.28585700  1
  C  243  1  0.67687000  0.30539800  0.30636000  1
  C  244  1  0.67117000  0.28595800  0.35879800  1
  C  245  1  0.70301600  0.35505500  0.31209000  1
  C  246  1  0.67461500  0.39150000  0.34310600  1
  C  249  1  0.66770700  0.36897600  0.39336800  1
  C  250  1  0.64254400  0.31943700  0.39234900  1
  C  255  1  0.59280900  0.32769400  0.36826600  1
  C  256  1  0.59475800  0.34844600  0.31614400  1
  C  259  1  0.62305300  0.39621700  0.32163200  1
  C  262  1  0.62675800  0.31535600  0.28421400  1
  C  265  1  0.69009200  0.67825200  0.31462800  1
  C  266  1  0.68096800  0.70214300  0.36400800  1
  C  267  1  0.64106700  0.67287800  0.28734900  1
  C  268  1  0.60243300  0.64512300  0.31609900  1
  C  271  1  0.59821400  0.66924100  0.36665400  1
  C  272  1  0.64556700  0.67289200  0.39589400  1
  C  277  1  0.66317900  0.61976800  0.39970100  1
  C  278  1  0.67166300  0.59312500  0.35137700  1
  C  281  1  0.62177800  0.59390600  0.32615100  1
  C  284  1  0.70734200  0.62554000  0.32324900  1
  C  287  1  0.30668000  0.31227800  0.31632700  1
  C  288  1  0.31642900  0.28992200  0.36633400  1
  C  289  1  0.35602400  0.31770700  0.28971400  1
  C  290  1  0.39344700  0.34759600  0.31801200  1
  C  293  1  0.39800300  0.32575700  0.36941300  1
  C  294  1  0.35038000  0.32126600  0.39797500  1
  C  299  1  0.33047600  0.37377100  0.39985400  1
  C  300  1  0.32215900  0.39871300  0.35048100  1
  C  303  1  0.37238200  0.39844400  0.32592900  1
  C  306  1  0.28806200  0.36490300  0.32244600  1
  C  309  1  0.68712300  0.31541600  0.67716500  1
  C  310  1  0.67513300  0.29475600  0.62686800  1
  C  311  1  0.63869800  0.32033200  0.70531400  1
  C  312  1  0.60092700  0.35114000  0.67874900  1
  C  315  1  0.59461600  0.33146800  0.62678600  1
  C  316  1  0.64104900  0.32782300  0.59653100  1
  C  321  1  0.66213500  0.37951400  0.59545800  1
  C  322  1  0.67195500  0.40280500  0.64531800  1
  C  325  1  0.62256700  0.40209800  0.67189100  1
  C  328  1  0.70628700  0.36804600  0.67179500  1
  C  331  1  0.30304100  0.68029000  0.68014100  1
  C  332  1  0.31099100  0.70402900  0.63045800  1
  C  333  1  0.35277400  0.67535700  0.70637300  1
  C  334  1  0.39095300  0.64759500  0.67704400  1
  C  337  1  0.39441600  0.67155000  0.62657000  1
  C  338  1  0.34627600  0.67471800  0.59880700  1
  C  343  1  0.32821600  0.62196000  0.59467300  1
  C  344  1  0.32096400  0.59523400  0.64313700  1
  C  347  1  0.37133100  0.59631800  0.66750500  1
  C  350  1  0.28585300  0.62741100  0.67217100  1
  C  353  1  0.27187200  0.28068800  0.28898900  1
  C  354  1  0.28909400  0.24060400  0.26408200  1
  C  355  1  0.26143100  0.21644900  0.23073700  1
  C  356  1  0.21465700  0.23083500  0.21906100  1
  C  357  1  0.19842700  0.27346200  0.24145700  1
  C  360  1  0.22312000  0.29221600  0.28118000  1
  C  361  1  0.16719900  0.30882500  0.21699200  1
  C  365  1  0.19085900  0.30722800  0.32074400  1
  C  369  1  0.72513500  0.70891900  0.28651000  1
  C  370  1  0.70832900  0.75072100  0.26424300  1
  C  371  1  0.73549200  0.77591200  0.23129900  1
  C  372  1  0.78185000  0.76167400  0.21803000  1
  C  373  1  0.79760500  0.71741100  0.23753300  1
  C  376  1  0.77322300  0.69639300  0.27641200  1
  C  377  1  0.82892600  0.68357500  0.21107100  1
  C  381  1  0.80575900  0.67750200  0.31404000  1
  C  385  1  0.72227600  0.28263500  0.70278600  1
  C  386  1  0.70543500  0.24201900  0.72708900  1
  C  387  1  0.73336800  0.21748700  0.75998700  1
  C  388  1  0.78019100  0.23175800  0.77173500  1
  C  389  1  0.79633300  0.27450800  0.74935000  1
  C  392  1  0.77114900  0.29381000  0.71013400  1
  C  393  1  0.82871600  0.30932000  0.77309500  1
  C  397  1  0.80270800  0.30868100  0.66995200  1
  C  401  1  0.26837900  0.71073700  0.70890800  1
  C  402  1  0.28553900  0.75216300  0.73160600  1
  C  403  1  0.25899900  0.77662200  0.76557300  1
  C  404  1  0.21285500  0.76211400  0.77922900  1
  C  405  1  0.19678000  0.71820600  0.75927600  1
  C  408  1  0.22053200  0.69786000  0.71968700  1
  C  409  1  0.16636600  0.68383800  0.78609000  1
  C  413  1  0.18734700  0.67948000  0.68238500  1
  C  417  1  0.29143700  0.27248600  0.72005700  1
  C  418  1  0.26385800  0.28999000  0.75825300  1
  C  419  1  0.23181600  0.26126100  0.78296500  1
  C  420  1  0.22308300  0.21345300  0.76995600  1
  C  421  1  0.24747400  0.19693200  0.72865500  1
  C  424  1  0.28676700  0.22278700  0.71060200  1
  C  425  1  0.22470600  0.16448400  0.69326400  1
  C  429  1  0.32762200  0.19157000  0.69683000  1
  C  433  1  0.70127600  0.72467400  0.71785800  1
  C  434  1  0.72628300  0.70725700  0.75782000  1
  C  435  1  0.75897400  0.73505100  0.78269900  1
  C  436  1  0.76994900  0.78223300  0.76917800  1
  C  437  1  0.74785800  0.79867400  0.72651000  1
  C  440  1  0.70865600  0.77369900  0.70699100  1
  C  441  1  0.77241300  0.83075100  0.69200000  1
  C  445  1  0.66919200  0.80579800  0.69131400  1
  C  449  1  0.29157800  0.72239000  0.28153500  1
  C  450  1  0.26861600  0.70613500  0.23985800  1
  C  451  1  0.23607800  0.73394000  0.21480000  1
  C  452  1  0.22392700  0.78062100  0.22894600  1
  C  453  1  0.24353400  0.79577500  0.27331300  1
  C  456  1  0.28190100  0.77057000  0.29445300  1
  C  457  1  0.21711900  0.82737700  0.30690200  1
  C  461  1  0.31917700  0.80238100  0.31516000  1
  C  465  1  0.70401400  0.27080600  0.27438500  1
  C  466  1  0.72972400  0.28839300  0.23494900  1
  C  467  1  0.76170900  0.26014200  0.20964200  1
  C  468  1  0.77177800  0.21263300  0.22275600  1
  C  469  1  0.74921500  0.19613300  0.26513300  1
  C  472  1  0.71018700  0.22144600  0.28446000  1
  C  473  1  0.77320200  0.16376600  0.29977600  1
  C  477  1  0.67004400  0.18968500  0.29904700  1
  C  481  1  0.94150200  0.18081300  0.16780600  1
  C  482  1  0.96834800  0.19885500  0.12939600  1
  C  483  1  0.01769900  0.19917300  0.12886100  1
  C  484  1  0.04549500  0.18312100  0.16732500  1
  C  485  1  0.01963200  0.17440700  0.21092100  1
  C  488  1  0.96810700  0.17204000  0.21087300  1
  C  489  1  0.04426800  0.16706400  0.25811900  1
  C  493  1  0.94431500  0.15884000  0.25720200  1
  C  497  1  0.05440000  0.81291200  0.17131200  1
  C  498  1  0.02810200  0.79573600  0.13207000  1
  C  499  1  0.97875800  0.79636900  0.13023400  1
  C  500  1  0.95028200  0.81209800  0.16829100  1
  C  501  1  0.97528100  0.82014300  0.21254000  1
  C  504  1  0.02683200  0.82181500  0.21372200  1
  C  505  1  0.94969600  0.82755800  0.25922400  1
  C  509  1  0.04976700  0.83426300  0.26066200  1
  C  513  1  0.05299400  0.18053600  0.82427700  1
  C  514  1  0.02613000  0.19838800  0.86278600  1
  C  515  1  0.97676900  0.19899700  0.86330100  1
  C  516  1  0.94888600  0.18331700  0.82475600  1
  C  517  1  0.97476900  0.17429500  0.78121800  1
  C  520  1  0.02630900  0.17186900  0.78123500  1
  C  521  1  0.95012900  0.16661000  0.73406700  1
  C  525  1  0.05008700  0.15879200  0.73486700  1
  C  529  1  0.94026600  0.81309300  0.82561200  1
  C  530  1  0.96652300  0.79542000  0.86466800  1
  C  531  1  0.01585700  0.79595700  0.86650400  1
  C  532  1  0.04430800  0.81197400  0.82856000  1
  C  533  1  0.01933100  0.82007900  0.78431100  1
  C  536  1  0.96779800  0.82201400  0.78318900  1
  C  537  1  0.04492000  0.82719900  0.73758400  1
  C  541  1  0.94489400  0.83478200  0.73632600  1
  C  545  1  0.17632900  0.95106300  0.17986800  1
  C  546  1  0.13820200  0.97753600  0.19888600  1
  C  547  1  0.13810200  0.02675100  0.20142300  1
  C  548  1  0.17544200  0.05513500  0.18360800  1
  C  549  1  0.21921600  0.02955200  0.17560500  1
  C  552  1  0.21968100  0.97795200  0.17364100  1
  C  553  1  0.26601900  0.05503000  0.17024500  1
  C  557  1  0.26693200  0.95425200  0.16487900  1
  C  561  1  0.17556000  0.04279600  0.81732600  1
  C  562  1  0.13826000  0.01643300  0.79653900  1
  C  563  1  0.13843600  0.96723700  0.79344600  1
  C  564  1  0.17513000  0.93892700  0.81261000  1
  C  565  1  0.21867700  0.96450200  0.82165600  1
  C  568  1  0.21892700  0.01606400  0.82417000  1
  C  569  1  0.26545200  0.93901600  0.82711100  1
  C  573  1  0.26596800  0.03973700  0.83406800  1
  C  577  1  0.81956400  0.04266800  0.17490800  1
  C  578  1  0.85687300  0.01664400  0.19615300  1
  C  579  1  0.85621900  0.96762700  0.20131300  1
  C  580  1  0.81923000  0.93892000  0.18338200  1
  C  581  1  0.77590100  0.96454100  0.17345700  1
  C  584  1  0.77599700  0.01599300  0.16915300  1
  C  585  1  0.72894300  0.93918300  0.16922600  1
  C  589  1  0.72910200  0.03958200  0.15840400  1
  C  593  1  0.81877900  0.95187600  0.81745000  1
  C  594  1  0.85672700  0.97803700  0.79763600  1
  C  595  1  0.85622600  0.02707600  0.79284200  1
  C  596  1  0.81868300  0.05579200  0.80964100  1
  C  597  1  0.77520500  0.03010900  0.81878200  1
  C  600  1  0.77520500  0.97862600  0.82284200  1
  C  601  1  0.72818300  0.05542300  0.82272100  1
  C  605  1  0.72817200  0.95504400  0.83306700  1
  C  609  1  0.19257700  0.17654800  0.94482300  1
  C  610  1  0.21471800  0.14204600  0.97361500  1
  C  611  1  0.21251200  0.14353200  0.02291500  1
  C  612  1  0.18796800  0.17960300  0.04782400  1
  C  613  1  0.17801700  0.22170400  0.02023200  1
  C  616  1  0.18143900  0.22043500  0.96889500  1
  C  617  1  0.16310200  0.26803600  0.04260500  1
  C  621  1  0.17421800  0.26633300  0.94222700  1
  C  625  1  0.80196200  0.17693200  0.04722700  1
  C  626  1  0.77963400  0.14271400  0.01826900  1
  C  627  1  0.78126700  0.14480200  0.96894500  1
  C  628  1  0.80586500  0.18094900  0.94410900  1
  C  629  1  0.81611900  0.22271800  0.97206300  1
  C  632  1  0.81289700  0.22103200  0.02341700  1
  C  633  1  0.83109600  0.26913200  0.94996600  1
  C  637  1  0.82002500  0.26676000  0.05038500  1
  C  641  1  0.19462500  0.81765600  0.05252900  1
  C  642  1  0.21524300  0.85279900  0.02341500  1
  C  643  1  0.21116200  0.85193600  0.97420500  1
  C  644  1  0.18651800  0.81571400  0.94953200  1
  C  645  1  0.17754900  0.77334700  0.97706700  1
  C  648  1  0.18292200  0.77402600  0.02825700  1
  C  649  1  0.16131200  0.72734800  0.95492300  1
  C  653  1  0.17728900  0.72776300  0.05466200  1
  C  657  1  0.80042800  0.81786600  0.94478000  1
  C  658  1  0.77906500  0.85250100  0.97391400  1
  C  659  1  0.78262400  0.85117600  0.02313900  1
  C  660  1  0.80774100  0.81513100  0.04762500  1
  C  661  1  0.81714900  0.77300700  0.01990500  1
  C  664  1  0.81204200  0.77403300  0.96871800  1
  C  665  1  0.83348600  0.72695400  0.04184200  1
  C  669  1  0.81772800  0.72793400  0.94203500  1
  C  673  1  0.43980800  0.64909300  0.70118000  1
  C  674  1  0.46688200  0.69111200  0.69911000  1
  C  675  1  0.51610200  0.68842000  0.69426900  1
  C  676  1  0.54123700  0.64453000  0.69429700  1
  C  677  1  0.51501600  0.60564700  0.71524800  1
  C  680  1  0.46431700  0.60957500  0.72104800  1
  C  681  1  0.53915500  0.56197800  0.73351700  1
  C  685  1  0.43919400  0.58277200  0.75952100  1
  C  689  1  0.55268700  0.34926900  0.70396500  1
  C  690  1  0.52586200  0.30708400  0.70180200  1
  C  691  1  0.47659900  0.30938500  0.69728400  1
  C  692  1  0.45127300  0.35315000  0.69646700  1
  C  693  1  0.47725600  0.39259400  0.71668300  1
  C  696  1  0.52790400  0.38898200  0.72293700  1
  C  697  1  0.45311200  0.43687100  0.73338200  1
  C  701  1  0.55268000  0.41619400  0.76133300  1
  C  705  1  0.55420300  0.64626300  0.29053800  1
  C  706  1  0.52726100  0.68843000  0.29138000  1
  C  707  1  0.47782400  0.68606800  0.29327700  1
  C  708  1  0.45288200  0.64207900  0.29257700  1
  C  709  1  0.47950000  0.60346700  0.27199300  1
  C  712  1  0.53045800  0.60718900  0.26863800  1
  C  713  1  0.45486700  0.56119300  0.25127900  1
  C  717  1  0.55710900  0.58014700  0.23145800  1
  C  721  1  0.44201000  0.34679900  0.29330300  1
  C  722  1  0.46905500  0.30471700  0.29402400  1
  C  723  1  0.51850300  0.30695700  0.29544000  1
  C  724  1  0.54357700  0.35088000  0.29631200  1
  C  725  1  0.51674500  0.39057000  0.27795500  1
  C  728  1  0.46596900  0.38664200  0.27332600  1
  C  729  1  0.54009000  0.43540800  0.26155800  1
  C  733  1  0.44061800  0.41302300  0.23470200  1
  C  737  1  0.69278400  0.45365600  0.64516500  1
  C  738  1  0.69474100  0.47718500  0.68985800  1
  C  739  1  0.69540500  0.52669300  0.69298700  1
  C  740  1  0.69726600  0.55449800  0.65135900  1
  C  741  1  0.71907300  0.53127800  0.61203300  1
  C  744  1  0.71391600  0.48068300  0.60704700  1
  C  745  1  0.75857000  0.55707300  0.58749900  1
  C  749  1  0.73388300  0.45715000  0.56383900  1
  C  753  1  0.69073500  0.54154600  0.35290100  1
  C  754  1  0.69484400  0.51847800  0.30799600  1
  C  755  1  0.69767500  0.46919000  0.30356300  1
  C  756  1  0.69854900  0.44034500  0.34435800  1
  C  757  1  0.71508800  0.46329100  0.38626500  1
  C  760  1  0.70710100  0.51330400  0.39248800  1
  C  761  1  0.75473400  0.43929000  0.41245800  1
  C  765  1  0.71744600  0.53358300  0.44047200  1
  C  769  1  0.30226100  0.54353500  0.64172400  1
  C  770  1  0.29936100  0.52014800  0.68651900  1
  C  771  1  0.29731000  0.47079900  0.69059700  1
  C  772  1  0.29605800  0.44213800  0.64964000  1
  C  773  1  0.27820700  0.46516300  0.60829000  1
  C  776  1  0.28511000  0.51541300  0.60238700  1
  C  777  1  0.23847800  0.44065400  0.58271500  1
  C  781  1  0.27250600  0.53638500  0.55525100  1
  C  785  1  0.30190500  0.44978800  0.35011800  1
  C  786  1  0.29998700  0.47282300  0.30508900  1
  C  787  1  0.29902600  0.52225000  0.30107600  1
  C  788  1  0.29796000  0.55058400  0.34227600  1
  C  789  1  0.27663900  0.52800400  0.38232000  1
  C  792  1  0.28158100  0.47748700  0.38810500  1
  C  793  1  0.23830900  0.55458000  0.40785900  1
  C  797  1  0.26214700  0.45457600  0.43187400  1
  C  801  1  0.64311300  0.69402000  0.44654200  1
  C  802  1  0.68599000  0.69293000  0.47309300  1
  C  803  1  0.68604000  0.69429700  0.52257000  1
  C  804  1  0.64286800  0.69556900  0.54813400  1
  C  805  1  0.60546300  0.71881700  0.52279000  1
  C  808  1  0.60423700  0.71599400  0.47158000  1
  C  809  1  0.57681200  0.75562200  0.54820800  1
  C  813  1  0.56585200  0.74054200  0.44431200  1
  C  817  1  0.35011700  0.69588800  0.54897200  1
  C  818  1  0.31023000  0.69451800  0.51888300  1
  C  819  1  0.31566900  0.69047600  0.46981200  1
  C  820  1  0.36074400  0.68439600  0.44749400  1
  C  821  1  0.40081200  0.69582500  0.47736600  1
  C  824  1  0.39390100  0.70692300  0.52655100  1
  C  825  1  0.45129000  0.69448200  0.46146900  1
  C  829  1  0.42257300  0.74631300  0.54806300  1
  C  833  1  0.63623700  0.31004600  0.54469600  1
  C  834  1  0.67986000  0.30380700  0.51976100  1
  C  835  1  0.68242800  0.29860000  0.47056800  1
  C  836  1  0.64089600  0.29933000  0.44277700  1
  C  837  1  0.59815400  0.28920100  0.46740400  1
  C  840  1  0.59421900  0.30005700  0.51690500  1
  C  841  1  0.56918700  0.24891000  0.44822200  1
  C  845  1  0.54419900  0.30668200  0.53346900  1
  C  849  1  0.35302000  0.30132100  0.44916000  1
  C  850  1  0.30958200  0.30120200  0.47490800  1
  C  851  1  0.30833400  0.29957900  0.52436000  1
  C  852  1  0.35091200  0.29902000  0.55080500  1
  C  853  1  0.38971000  0.27750500  0.52631000  1
  C  856  1  0.39231400  0.28122400  0.47528100  1
  C  857  1  0.41707100  0.23976200  0.55190600  1
  C  861  1  0.43422200  0.26069100  0.45004700  1
