# generated using pymatgen
data_H20C39(NO2)4
_symmetry_space_group_name_H-M   'P 1'
_cell_length_a   29.07780000
_cell_length_b   46.78370000
_cell_length_c   46.78380000
_cell_angle_alpha   90.00000000
_cell_angle_beta   89.99980000
_cell_angle_gamma   90.00000000
_symmetry_Int_Tables_number   1
_chemical_formula_structural   H20C39(NO2)4
_chemical_formula_sum   'H640 C1248 N128 O256'
_cell_volume   63643.14101610
_cell_formula_units_Z   32
loop_
 _symmetry_equiv_pos_site_id
 _symmetry_equiv_pos_as_xyz
  1  'x, y, z'
loop_
 _atom_site_type_symbol
 _atom_site_label
 _atom_site_symmetry_multiplicity
 _atom_site_fract_x
 _atom_site_fract_y
 _atom_site_fract_z
 _atom_site_occupancy
  H  25  1  0.71906400  0.18383500  0.42706000  1
  H  26  1  0.73533100  0.13585200  0.43818400  1
  H  27  1  0.83281400  0.05289300  0.44064800  1
  H  28  1  0.89025000  0.02393700  0.42062000  1
  H  29  1  0.93317200  0.09176500  0.36758200  1
  H  30  1  0.84938300  0.19254600  0.38844400  1
  H  31  1  0.81985600  0.11522100  0.34785600  1
  H  32  1  0.86815000  0.16892300  0.28197600  1
  H  33  1  0.92819600  0.18503800  0.31139400  1
  H  34  1  0.90245100  0.13205800  0.44963800  1
  H  35  1  0.02602700  0.17386400  0.39434800  1
  H  36  1  0.03854700  0.16228200  0.44300300  1
  H  39  1  0.81171600  0.10538400  0.45178900  1
  H  40  1  0.77800900  0.09276300  0.42274900  1
  H  42  1  0.98105100  0.16173300  0.35036900  1
  H  43  1  0.95276100  0.19262700  0.36367700  1
  H  68  1  0.21851600  0.32436100  0.58574200  1
  H  69  1  0.23560600  0.37219100  0.57449300  1
  H  70  1  0.33419600  0.45454000  0.57202200  1
  H  71  1  0.39143600  0.48338800  0.59234000  1
  H  72  1  0.43344400  0.41542400  0.64553000  1
  H  73  1  0.34850000  0.31495100  0.62460800  1
  H  74  1  0.32008400  0.39320500  0.66503200  1
  H  75  1  0.36481100  0.33839100  0.73101700  1
  H  76  1  0.42444800  0.32129500  0.70191200  1
  H  77  1  0.40409900  0.37530600  0.56364500  1
  H  78  1  0.52393900  0.33051000  0.61980300  1
  H  79  1  0.53817000  0.34195900  0.57137800  1
  H  82  1  0.31268900  0.40206700  0.56090000  1
  H  83  1  0.27890400  0.41503700  0.58975000  1
  H  85  1  0.47901200  0.34361300  0.66339900  1
  H  86  1  0.44926400  0.31336500  0.64982000  1
  H  111  1  0.96877300  0.82806500  0.93855700  1
  H  112  1  0.97920800  0.82132800  0.88928100  1
  H  113  1  0.05158200  0.83995000  0.80033600  1
  H  114  1  0.10697600  0.86178900  0.77108200  1
  H  115  1  0.18180500  0.88812000  0.84368600  1
  H  116  1  0.09923900  0.86703400  0.94458000  1
  H  117  1  0.06389700  0.91209000  0.86883800  1
  H  118  1  0.11475200  0.97609100  0.92382100  1
  H  119  1  0.17410100  0.94557000  0.93893900  1
  H  120  1  0.14912200  0.80968900  0.87917100  1
  H  121  1  0.27292800  0.86472300  0.92112700  1
  H  122  1  0.28689700  0.81725600  0.90660100  1
  H  125  1  0.04571900  0.81465100  0.85079400  1
  H  126  1  0.01275400  0.84648000  0.84757300  1
  H  128  1  0.22596400  0.90817000  0.91378500  1
  H  129  1  0.19870000  0.89235300  0.94384000  1
  H  154  1  0.46713000  0.68007000  0.07669700  1
  H  155  1  0.47929400  0.68693300  0.12565900  1
  H  156  1  0.55352200  0.66764200  0.21371700  1
  H  157  1  0.60891500  0.64506200  0.24236700  1
  H  158  1  0.68178500  0.61869800  0.16901400  1
  H  159  1  0.59728000  0.64098100  0.06894500  1
  H  160  1  0.56377700  0.59547400  0.14436000  1
  H  161  1  0.61453800  0.53168300  0.08909800  1
  H  162  1  0.67331800  0.56248200  0.07362700  1
  H  163  1  0.64879100  0.69792600  0.13451100  1
  H  164  1  0.77194600  0.64340500  0.09117900  1
  H  165  1  0.78605300  0.69076600  0.10607900  1
  H  168  1  0.54724600  0.69333100  0.16340500  1
  H  169  1  0.51360500  0.66180300  0.16687100  1
  H  171  1  0.72524400  0.59985800  0.09845700  1
  H  172  1  0.69733600  0.61589300  0.06875000  1
  H  197  1  0.78761800  0.31771300  0.42090000  1
  H  198  1  0.77350400  0.36621300  0.43202600  1
  H  199  1  0.67592500  0.44940600  0.43819300  1
  H  200  1  0.61797700  0.47879700  0.41941700  1
  H  201  1  0.57293200  0.41193800  0.36581700  1
  H  202  1  0.65427200  0.31024700  0.38635000  1
  H  203  1  0.68634200  0.38959500  0.34535700  1
  H  204  1  0.64186400  0.33568700  0.27855800  1
  H  205  1  0.58265100  0.31781600  0.30748700  1
  H  206  1  0.59993900  0.37229400  0.44612300  1
  H  207  1  0.48389500  0.32421300  0.38956700  1
  H  208  1  0.46793400  0.33595400  0.43746200  1
  H  211  1  0.69821700  0.39692400  0.44792700  1
  H  212  1  0.72994200  0.40979200  0.41814900  1
  H  214  1  0.52807600  0.33837000  0.34639000  1
  H  215  1  0.55935800  0.30861400  0.35975300  1
  H  240  1  0.28664000  0.19037700  0.59151800  1
  H  241  1  0.27240500  0.14198700  0.57999500  1
  H  242  1  0.17528900  0.05867200  0.57396300  1
  H  243  1  0.11817000  0.02892100  0.59314300  1
  H  244  1  0.07305300  0.09551200  0.64708900  1
  H  245  1  0.15377300  0.19746600  0.62681900  1
  H  246  1  0.18635200  0.11717700  0.66710000  1
  H  247  1  0.14513000  0.17151400  0.73436900  1
  H  248  1  0.08567600  0.18999800  0.70607900  1
  H  249  1  0.09775300  0.13591700  0.56715700  1
  H  250  1  0.98350300  0.18323900  0.62568000  1
  H  251  1  0.96556100  0.17135900  0.57823800  1
  H  254  1  0.19678600  0.11138000  0.56427100  1
  H  255  1  0.22918700  0.09828500  0.59366800  1
  H  257  1  0.02946900  0.16969800  0.66799800  1
  H  258  1  0.06068300  0.19924400  0.65411900  1
  H  283  1  0.54122400  0.66687100  0.94427800  1
  H  284  1  0.53378500  0.67334100  0.89441500  1
  H  285  1  0.45560900  0.66532300  0.80517700  1
  H  286  1  0.39799400  0.64658800  0.77537200  1
  H  287  1  0.32419900  0.61722300  0.84724500  1
  H  288  1  0.40396100  0.63819600  0.94888900  1
  H  289  1  0.44226900  0.59137900  0.87106300  1
  H  290  1  0.39530800  0.52686300  0.92678100  1
  H  291  1  0.33664000  0.55702900  0.94343200  1
  H  292  1  0.35494800  0.69314000  0.88243200  1
  H  293  1  0.23712500  0.63768700  0.93020500  1
  H  294  1  0.22060000  0.68458000  0.91564500  1
  H  297  1  0.46820600  0.68606500  0.85634400  1
  H  298  1  0.49542300  0.65237000  0.85172700  1
  H  300  1  0.28308500  0.59470200  0.92078100  1
  H  301  1  0.31343100  0.61023300  0.94984000  1
  H  326  1  0.03998000  0.83600000  0.07013000  1
  H  327  1  0.03115200  0.82966600  0.11983800  1
  H  328  1  0.95401000  0.84161500  0.20873100  1
  H  329  1  0.89730300  0.86177200  0.23823400  1
  H  330  1  0.82478400  0.89130500  0.16591300  1
  H  331  1  0.90559500  0.86941300  0.06465600  1
  H  332  1  0.94295000  0.91570700  0.14227700  1
  H  333  1  0.89699000  0.98026100  0.08624800  1
  H  334  1  0.83828600  0.95023000  0.06946000  1
  H  335  1  0.85427000  0.81433600  0.13113200  1
  H  336  1  0.73726000  0.87040100  0.08332600  1
  H  337  1  0.71994800  0.82369600  0.09809800  1
  H  340  1  0.96469100  0.81957300  0.15779200  1
  H  341  1  0.99442900  0.85248000  0.16212300  1
  H  343  1  0.78414500  0.91308900  0.09227400  1
  H  344  1  0.81417800  0.89707400  0.06335100  1
  H  369  1  0.28732800  0.82173600  0.58142900  1
  H  370  1  0.27622600  0.87081500  0.57391300  1
  H  371  1  0.20383000  0.95979100  0.59212100  1
  H  372  1  0.15002100  0.98909100  0.61530200  1
  H  373  1  0.07524900  0.91674400  0.64221700  1
  H  374  1  0.15729700  0.81574900  0.62097500  1
  H  375  1  0.19088800  0.89172900  0.66555200  1
  H  376  1  0.13687200  0.83843700  0.72994400  1
  H  377  1  0.07875100  0.82271700  0.69878000  1
  H  378  1  0.10837100  0.88118400  0.56260000  1
  H  379  1  0.98271500  0.83975500  0.61633500  1
  H  380  1  0.97025200  0.85417700  0.56859400  1
  H  383  1  0.20845300  0.90883900  0.56680200  1
  H  384  1  0.24266200  0.91281500  0.59802200  1
  H  386  1  0.02854400  0.84709300  0.66029200  1
  H  387  1  0.05618400  0.81691200  0.64500000  1
  H  412  1  0.78781100  0.68497900  0.43137800  1
  H  413  1  0.77613500  0.63596900  0.43895500  1
  H  414  1  0.70322000  0.54731800  0.42046000  1
  H  415  1  0.64950900  0.51822100  0.39702200  1
  H  416  1  0.57494700  0.59075200  0.37037900  1
  H  417  1  0.65802100  0.69147100  0.39162300  1
  H  418  1  0.69077100  0.61454900  0.34709700  1
  H  419  1  0.64012400  0.66907900  0.28265400  1
  H  420  1  0.58240000  0.68571700  0.31358100  1
  H  421  1  0.60682400  0.62608700  0.44972400  1
  H  422  1  0.48441100  0.67018800  0.39520600  1
  H  423  1  0.47019700  0.65566800  0.44266300  1
  H  426  1  0.70793900  0.59822300  0.44596400  1
  H  427  1  0.74227400  0.59411700  0.41481000  1
  H  429  1  0.53051800  0.66223900  0.35163300  1
  H  430  1  0.55955100  0.69173400  0.36727100  1
  H  455  1  0.03665400  0.17027700  0.07329000  1
  H  456  1  0.02465300  0.18030700  0.12169700  1
  H  457  1  0.94981400  0.16851700  0.21047300  1
  H  458  1  0.89504400  0.14741100  0.24060300  1
  H  459  1  0.81976300  0.11831200  0.16937600  1
  H  460  1  0.90441200  0.13335600  0.06758500  1
  H  461  1  0.94079700  0.09342700  0.14112000  1
  H  462  1  0.86814700  0.02337900  0.10684900  1
  H  463  1  0.80992000  0.05403100  0.09034300  1
  H  464  1  0.85689400  0.19588100  0.12910400  1
  H  465  1  0.72737300  0.14171000  0.09304700  1
  H  466  1  0.71796700  0.19059100  0.10335100  1
  H  469  1  0.95597700  0.19114900  0.15825700  1
  H  470  1  0.98882000  0.15968500  0.16429600  1
  H  472  1  0.76906400  0.09824400  0.10805500  1
  H  473  1  0.79456800  0.10702000  0.07467300  1
  H  498  1  0.53819400  0.33648000  0.93740800  1
  H  499  1  0.52475100  0.32635100  0.88927800  1
  H  500  1  0.44835200  0.33879100  0.80121600  1
  H  501  1  0.39365800  0.36062500  0.77156000  1
  H  502  1  0.32001700  0.38974000  0.84343800  1
  H  503  1  0.40626500  0.37356100  0.94459700  1
  H  504  1  0.44147100  0.41372700  0.87158200  1
  H  505  1  0.36902400  0.48364200  0.90623900  1
  H  506  1  0.31074600  0.45298400  0.92263200  1
  H  507  1  0.35733800  0.31135200  0.88301400  1
  H  508  1  0.22807100  0.36536000  0.91967200  1
  H  509  1  0.21859100  0.31651800  0.90913000  1
  H  512  1  0.45475200  0.31574200  0.85335100  1
  H  513  1  0.48824200  0.34689800  0.84711400  1
  H  515  1  0.26975800  0.40889600  0.90472400  1
  H  516  1  0.29530900  0.39995100  0.93805000  1
  H  541  1  0.21719700  0.69035700  0.59057700  1
  H  542  1  0.22600000  0.64073500  0.58371800  1
  H  543  1  0.30244300  0.55169800  0.59531400  1
  H  544  1  0.35816700  0.52207000  0.61616500  1
  H  545  1  0.43287300  0.59407000  0.64416200  1
  H  546  1  0.35212100  0.69558800  0.62319700  1
  H  547  1  0.31677500  0.61663900  0.66922000  1
  H  548  1  0.36508300  0.67095100  0.73455600  1
  H  549  1  0.42156900  0.68934000  0.70379800  1
  H  550  1  0.40278500  0.62912200  0.56717800  1
  H  551  1  0.51995000  0.67763900  0.62246000  1
  H  552  1  0.53672200  0.66294800  0.57565900  1
  H  555  1  0.29261900  0.60290600  0.57280400  1
  H  556  1  0.26296100  0.59829800  0.60569800  1
  H  558  1  0.47433800  0.66837500  0.66540600  1
  H  559  1  0.44283300  0.69696400  0.64991800  1
  H  584  1  0.71792900  0.81641000  0.42244600  1
  H  585  1  0.72690200  0.86597000  0.42969200  1
  H  586  1  0.80338300  0.95500100  0.41853000  1
  H  587  1  0.85870700  0.98474800  0.39748800  1
  H  588  1  0.93305600  0.91297300  0.36859100  1
  H  589  1  0.85251000  0.81134400  0.38928400  1
  H  590  1  0.81698100  0.89146800  0.34394200  1
  H  591  1  0.86196000  0.83687400  0.27794500  1
  H  592  1  0.91835400  0.81753400  0.30812200  1
  H  593  1  0.90525400  0.87741000  0.44516500  1
  H  594  1  0.01991900  0.82888800  0.38793500  1
  H  595  1  0.03881200  0.84373500  0.43424400  1
  H  598  1  0.79381900  0.90360900  0.44068700  1
  H  599  1  0.76373000  0.90855700  0.40799400  1
  H  601  1  0.97272500  0.83768200  0.34590600  1
  H  602  1  0.94083800  0.80953600  0.36188100  1
  H  627  1  0.46809300  0.35358700  0.06841300  1
  H  628  1  0.47590600  0.34363000  0.11752300  1
  H  629  1  0.55663400  0.34040700  0.20589700  1
  H  630  1  0.61424500  0.35705400  0.23683000  1
  H  631  1  0.68980100  0.38928700  0.16705500  1
  H  632  1  0.60843300  0.37637400  0.06406900  1
  H  633  1  0.56946500  0.41780300  0.14114500  1
  H  634  1  0.64318100  0.48865300  0.10959900  1
  H  635  1  0.69910400  0.45817000  0.08996100  1
  H  636  1  0.65326100  0.31563100  0.12705000  1
  H  637  1  0.77579100  0.36929300  0.08190500  1
  H  638  1  0.78694700  0.32079500  0.09211300  1
  H  641  1  0.54201500  0.32415300  0.15289200  1
  H  642  1  0.51739800  0.35791500  0.16116600  1
  H  644  1  0.73894900  0.41230800  0.10127200  1
  H  645  1  0.70748100  0.40556400  0.06941400  1
  H  670  1  0.96856400  0.15707000  0.94313300  1
  H  671  1  0.97766700  0.16711100  0.89417800  1
  H  672  1  0.05843900  0.16741100  0.80597000  1
  H  673  1  0.11549000  0.14965500  0.77528900  1
  H  674  1  0.18980900  0.11722700  0.84549700  1
  H  675  1  0.10730200  0.13087000  0.94813100  1
  H  676  1  0.06902100  0.08989800  0.87147400  1
  H  677  1  0.14220000  0.01891000  0.90318300  1
  H  678  1  0.19834200  0.04923700  0.92274800  1
  H  679  1  0.15383500  0.19179700  0.88521300  1
  H  680  1  0.27610100  0.13777100  0.93020100  1
  H  681  1  0.28765200  0.18621000  0.91988800  1
  H  684  1  0.04493800  0.18469000  0.85889300  1
  H  685  1  0.01841900  0.15144600  0.85078100  1
  H  687  1  0.23863600  0.09484500  0.91108100  1
  H  688  1  0.20748100  0.10186100  0.94300300  1
  H  694  1  0.77756600  0.22750600  0.36037700  1
  H  696  1  0.75798700  0.22756800  0.44928800  1
  H  708  1  0.27785000  0.28009300  0.65241500  1
  H  710  1  0.25583500  0.28049100  0.56370700  1
  H  722  1  0.02643800  0.89488400  0.98014800  1
  H  724  1  0.01093800  0.80569200  0.98163200  1
  H  736  1  0.53434200  0.61396100  0.03294800  1
  H  738  1  0.49892700  0.70096400  0.03308700  1
  H  750  1  0.23003300  0.78024300  0.64881500  1
  H  752  1  0.24600800  0.77844600  0.55968000  1
  H  764  1  0.72996200  0.72683400  0.36394700  1
  H  766  1  0.74752900  0.72836000  0.45299200  1
  H  778  1  0.97818600  0.10357600  0.03259500  1
  H  780  1  0.99670200  0.19244400  0.02953600  1
  H  792  1  0.47269700  0.40262900  0.98006800  1
  H  794  1  0.50612800  0.31541100  0.98140400  1
  H  806  1  0.28105300  0.72768000  0.85106000  1
  H  808  1  0.25875400  0.72863300  0.93964700  1
  H  820  1  0.78143100  0.77971300  0.16234400  1
  H  822  1  0.75660100  0.77963600  0.07400600  1
  H  834  1  0.52783600  0.40159500  0.48095600  1
  H  836  1  0.50753800  0.31273700  0.48113300  1
  H  848  1  0.03770900  0.10806100  0.53130900  1
  H  850  1  0.99246500  0.19323900  0.53425500  1
  H  862  1  0.72879000  0.28010400  0.15765600  1
  H  864  1  0.74454100  0.27752400  0.06859400  1
  H  876  1  0.22872600  0.22732500  0.85459800  1
  H  878  1  0.24601400  0.22949000  0.94356900  1
  H  890  1  0.47619500  0.59827200  0.53193700  1
  H  892  1  0.49872800  0.68684300  0.53185400  1
  H  904  1  0.96815100  0.90669100  0.48127700  1
  H  906  1  0.01231300  0.82138600  0.47835300  1
  H  918  1  0.85283600  0.08867800  0.28967900  1
  H  920  1  0.77191900  0.16204400  0.27971900  1
  H  932  1  0.35282200  0.41924800  0.72290900  1
  H  934  1  0.26973400  0.34697300  0.73330200  1
  H  946  1  0.09961900  0.96933900  0.84363700  1
  H  948  1  0.01849900  0.98034100  0.91674800  1
  H  960  1  0.59981200  0.53837300  0.16940500  1
  H  962  1  0.51854700  0.52718700  0.09629500  1
  H  974  1  0.65515600  0.41626000  0.28720200  1
  H  976  1  0.73725700  0.34344600  0.27707300  1
  H  988  1  0.15533900  0.09056400  0.72494200  1
  H  990  1  0.23972500  0.16220300  0.73554000  1
  H  1002  1  0.40922600  0.53381400  0.84590900  1
  H  1004  1  0.49050500  0.52353200  0.91904300  1
  H  1016  1  0.90944300  0.97294100  0.16711700  1
  H  1018  1  0.99187700  0.98400200  0.09453100  1
  H  1030  1  0.15350100  0.91849200  0.72229200  1
  H  1032  1  0.23327700  0.84503300  0.73492200  1
  H  1044  1  0.65361900  0.58835000  0.29054100  1
  H  1046  1  0.73542000  0.66082600  0.27769000  1
  H  1058  1  0.35320400  0.59019600  0.72533500  1
  H  1060  1  0.27027000  0.66195200  0.73936200  1
  H  1072  1  0.85341400  0.91796400  0.28830900  1
  H  1074  1  0.76813900  0.84737100  0.27324200  1
  H  1086  1  0.60877700  0.47018700  0.33907100  1
  H  1088  1  0.52231600  0.48076700  0.40990300  1
  H  1100  1  0.10921700  0.03727200  0.67356800  1
  H  1102  1  0.02258000  0.02678500  0.60294700  1
  H  1114  1  0.89867500  0.03398000  0.34017100  1
  H  1116  1  0.98557000  0.02253600  0.41055200  1
  H  1128  1  0.39939800  0.47289700  0.67297700  1
  H  1130  1  0.48614400  0.48496800  0.60251000  1
  H  1161  1  0.16614000  0.18383500  0.42706000  1
  H  1162  1  0.18240700  0.13585200  0.43818400  1
  H  1163  1  0.27989000  0.05289300  0.44064800  1
  H  1164  1  0.33732600  0.02393700  0.42062000  1
  H  1165  1  0.38024800  0.09176500  0.36758200  1
  H  1166  1  0.29645900  0.19254600  0.38844400  1
  H  1167  1  0.26693200  0.11522100  0.34785600  1
  H  1168  1  0.31522600  0.16892300  0.28197600  1
  H  1169  1  0.37527200  0.18503800  0.31139400  1
  H  1170  1  0.34952700  0.13205800  0.44963800  1
  H  1171  1  0.47310300  0.17386400  0.39434800  1
  H  1172  1  0.48562300  0.16228200  0.44300300  1
  H  1175  1  0.25879200  0.10538400  0.45178900  1
  H  1176  1  0.22508500  0.09276300  0.42274900  1
  H  1178  1  0.42812700  0.16173300  0.35036900  1
  H  1179  1  0.39983700  0.19262700  0.36367700  1
  H  1204  1  0.66559200  0.32436100  0.58574200  1
  H  1205  1  0.68268200  0.37219100  0.57449300  1
  H  1206  1  0.78127200  0.45454000  0.57202200  1
  H  1207  1  0.83851200  0.48338800  0.59234000  1
  H  1208  1  0.88052000  0.41542400  0.64553000  1
  H  1209  1  0.79557600  0.31495100  0.62460800  1
  H  1210  1  0.76716000  0.39320500  0.66503200  1
  H  1211  1  0.81188700  0.33839100  0.73101700  1
  H  1212  1  0.87152400  0.32129500  0.70191200  1
  H  1213  1  0.85117500  0.37530600  0.56364500  1
  H  1214  1  0.97101500  0.33051000  0.61980300  1
  H  1215  1  0.98524600  0.34195900  0.57137800  1
  H  1218  1  0.75976500  0.40206700  0.56090000  1
  H  1219  1  0.72598000  0.41503700  0.58975000  1
  H  1221  1  0.92608800  0.34361300  0.66339900  1
  H  1222  1  0.89634000  0.31336500  0.64982000  1
  H  1247  1  0.41584900  0.82806500  0.93855700  1
  H  1248  1  0.42628400  0.82132800  0.88928100  1
  H  1249  1  0.49865800  0.83995000  0.80033600  1
  H  1250  1  0.55405200  0.86178900  0.77108200  1
  H  1251  1  0.62888100  0.88812000  0.84368600  1
  H  1252  1  0.54631500  0.86703400  0.94458000  1
  H  1253  1  0.51097300  0.91209000  0.86883800  1
  H  1254  1  0.56182800  0.97609100  0.92382100  1
  H  1255  1  0.62117700  0.94557000  0.93893900  1
  H  1256  1  0.59619800  0.80968900  0.87917100  1
  H  1257  1  0.72000400  0.86472300  0.92112700  1
  H  1258  1  0.73397300  0.81725600  0.90660100  1
  H  1261  1  0.49279500  0.81465100  0.85079400  1
  H  1262  1  0.45983000  0.84648000  0.84757300  1
  H  1264  1  0.67304000  0.90817000  0.91378500  1
  H  1265  1  0.64577600  0.89235300  0.94384000  1
  H  1290  1  0.91420600  0.68007000  0.07669700  1
  H  1291  1  0.92637000  0.68693300  0.12565900  1
  H  1292  1  0.00059846  0.66764200  0.21371700  1
  H  1293  1  0.05599150  0.64506200  0.24236700  1
  H  1294  1  0.12886100  0.61869800  0.16901400  1
  H  1295  1  0.04435650  0.64098100  0.06894500  1
  H  1296  1  0.01085350  0.59547400  0.14436000  1
  H  1297  1  0.06161450  0.53168300  0.08909800  1
  H  1298  1  0.12039400  0.56248200  0.07362700  1
  H  1299  1  0.09586750  0.69792600  0.13451100  1
  H  1300  1  0.21902200  0.64340500  0.09117900  1
  H  1301  1  0.23312900  0.69076600  0.10607900  1
  H  1304  1  0.99432200  0.69333100  0.16340500  1
  H  1305  1  0.96068100  0.66180300  0.16687100  1
  H  1307  1  0.17232000  0.59985800  0.09845700  1
  H  1308  1  0.14441200  0.61589300  0.06875000  1
  H  1333  1  0.23469400  0.31771300  0.42090000  1
  H  1334  1  0.22058000  0.36621300  0.43202600  1
  H  1335  1  0.12300100  0.44940600  0.43819300  1
  H  1336  1  0.06505350  0.47879700  0.41941700  1
  H  1337  1  0.02000850  0.41193800  0.36581700  1
  H  1338  1  0.10134800  0.31024700  0.38635000  1
  H  1339  1  0.13341800  0.38959500  0.34535700  1
  H  1340  1  0.08894050  0.33568700  0.27855800  1
  H  1341  1  0.02972750  0.31781600  0.30748700  1
  H  1342  1  0.04701550  0.37229400  0.44612300  1
  H  1343  1  0.93097100  0.32421300  0.38956700  1
  H  1344  1  0.91501000  0.33595400  0.43746200  1
  H  1347  1  0.14529300  0.39692400  0.44792700  1
  H  1348  1  0.17701800  0.40979200  0.41814900  1
  H  1350  1  0.97515200  0.33837000  0.34639000  1
  H  1351  1  0.00643446  0.30861400  0.35975300  1
  H  1376  1  0.73371600  0.19037700  0.59151800  1
  H  1377  1  0.71948100  0.14198700  0.57999500  1
  H  1378  1  0.62236500  0.05867200  0.57396300  1
  H  1379  1  0.56524600  0.02892100  0.59314300  1
  H  1380  1  0.52012900  0.09551200  0.64708900  1
  H  1381  1  0.60084900  0.19746600  0.62681900  1
  H  1382  1  0.63342800  0.11717700  0.66710000  1
  H  1383  1  0.59220600  0.17151400  0.73436900  1
  H  1384  1  0.53275200  0.18999800  0.70607900  1
  H  1385  1  0.54482900  0.13591700  0.56715700  1
  H  1386  1  0.43057900  0.18323900  0.62568000  1
  H  1387  1  0.41263700  0.17135900  0.57823800  1
  H  1390  1  0.64386200  0.11138000  0.56427100  1
  H  1391  1  0.67626300  0.09828500  0.59366800  1
  H  1393  1  0.47654500  0.16969800  0.66799800  1
  H  1394  1  0.50775900  0.19924400  0.65411900  1
  H  1419  1  0.98830000  0.66687100  0.94427800  1
  H  1420  1  0.98086100  0.67334100  0.89441500  1
  H  1421  1  0.90268500  0.66532300  0.80517700  1
  H  1422  1  0.84507000  0.64658800  0.77537200  1
  H  1423  1  0.77127500  0.61722300  0.84724500  1
  H  1424  1  0.85103700  0.63819600  0.94888900  1
  H  1425  1  0.88934500  0.59137900  0.87106300  1
  H  1426  1  0.84238400  0.52686300  0.92678100  1
  H  1427  1  0.78371600  0.55702900  0.94343200  1
  H  1428  1  0.80202400  0.69314000  0.88243200  1
  H  1429  1  0.68420100  0.63768700  0.93020500  1
  H  1430  1  0.66767600  0.68458000  0.91564500  1
  H  1433  1  0.91528200  0.68606500  0.85634400  1
  H  1434  1  0.94249900  0.65237000  0.85172700  1
  H  1436  1  0.73016100  0.59470200  0.92078100  1
  H  1437  1  0.76050700  0.61023300  0.94984000  1
  H  1462  1  0.48705600  0.83600000  0.07013000  1
  H  1463  1  0.47822800  0.82966600  0.11983800  1
  H  1464  1  0.40108600  0.84161500  0.20873100  1
  H  1465  1  0.34437900  0.86177200  0.23823400  1
  H  1466  1  0.27186000  0.89130500  0.16591300  1
  H  1467  1  0.35267100  0.86941300  0.06465600  1
  H  1468  1  0.39002600  0.91570700  0.14227700  1
  H  1469  1  0.34406600  0.98026100  0.08624800  1
  H  1470  1  0.28536200  0.95023000  0.06946000  1
  H  1471  1  0.30134600  0.81433600  0.13113200  1
  H  1472  1  0.18433600  0.87040100  0.08332600  1
  H  1473  1  0.16702400  0.82369600  0.09809800  1
  H  1476  1  0.41176700  0.81957300  0.15779200  1
  H  1477  1  0.44150500  0.85248000  0.16212300  1
  H  1479  1  0.23122100  0.91308900  0.09227400  1
  H  1480  1  0.26125400  0.89707400  0.06335100  1
  H  1505  1  0.73440400  0.82173600  0.58142900  1
  H  1506  1  0.72330200  0.87081500  0.57391300  1
  H  1507  1  0.65090600  0.95979100  0.59212100  1
  H  1508  1  0.59709700  0.98909100  0.61530200  1
  H  1509  1  0.52232500  0.91674400  0.64221700  1
  H  1510  1  0.60437300  0.81574900  0.62097500  1
  H  1511  1  0.63796400  0.89172900  0.66555200  1
  H  1512  1  0.58394800  0.83843700  0.72994400  1
  H  1513  1  0.52582700  0.82271700  0.69878000  1
  H  1514  1  0.55544700  0.88118400  0.56260000  1
  H  1515  1  0.42979100  0.83975500  0.61633500  1
  H  1516  1  0.41732800  0.85417700  0.56859400  1
  H  1519  1  0.65552900  0.90883900  0.56680200  1
  H  1520  1  0.68973800  0.91281500  0.59802200  1
  H  1522  1  0.47562000  0.84709300  0.66029200  1
  H  1523  1  0.50326000  0.81691200  0.64500000  1
  H  1548  1  0.23488700  0.68497900  0.43137800  1
  H  1549  1  0.22321100  0.63596900  0.43895500  1
  H  1550  1  0.15029600  0.54731800  0.42046000  1
  H  1551  1  0.09658550  0.51822100  0.39702200  1
  H  1552  1  0.02202350  0.59075200  0.37037900  1
  H  1553  1  0.10509700  0.69147100  0.39162300  1
  H  1554  1  0.13784700  0.61454900  0.34709700  1
  H  1555  1  0.08720050  0.66907900  0.28265400  1
  H  1556  1  0.02947650  0.68571700  0.31358100  1
  H  1557  1  0.05390050  0.62608700  0.44972400  1
  H  1558  1  0.93148700  0.67018800  0.39520600  1
  H  1559  1  0.91727300  0.65566800  0.44266300  1
  H  1562  1  0.15501500  0.59822300  0.44596400  1
  H  1563  1  0.18935000  0.59411700  0.41481000  1
  H  1565  1  0.97759400  0.66223900  0.35163300  1
  H  1566  1  0.00662746  0.69173400  0.36727100  1
  H  1591  1  0.48373000  0.17027700  0.07329000  1
  H  1592  1  0.47172900  0.18030700  0.12169700  1
  H  1593  1  0.39689000  0.16851700  0.21047300  1
  H  1594  1  0.34212000  0.14741100  0.24060300  1
  H  1595  1  0.26683900  0.11831200  0.16937600  1
  H  1596  1  0.35148800  0.13335600  0.06758500  1
  H  1597  1  0.38787300  0.09342700  0.14112000  1
  H  1598  1  0.31522300  0.02337900  0.10684900  1
  H  1599  1  0.25699600  0.05403100  0.09034300  1
  H  1600  1  0.30397000  0.19588100  0.12910400  1
  H  1601  1  0.17444900  0.14171000  0.09304700  1
  H  1602  1  0.16504300  0.19059100  0.10335100  1
  H  1605  1  0.40305300  0.19114900  0.15825700  1
  H  1606  1  0.43589600  0.15968500  0.16429600  1
  H  1608  1  0.21614000  0.09824400  0.10805500  1
  H  1609  1  0.24164400  0.10702000  0.07467300  1
  H  1634  1  0.98527000  0.33648000  0.93740800  1
  H  1635  1  0.97182700  0.32635100  0.88927800  1
  H  1636  1  0.89542800  0.33879100  0.80121600  1
  H  1637  1  0.84073400  0.36062500  0.77156000  1
  H  1638  1  0.76709300  0.38974000  0.84343800  1
  H  1639  1  0.85334100  0.37356100  0.94459700  1
  H  1640  1  0.88854700  0.41372700  0.87158200  1
  H  1641  1  0.81610000  0.48364200  0.90623900  1
  H  1642  1  0.75782200  0.45298400  0.92263200  1
  H  1643  1  0.80441400  0.31135200  0.88301400  1
  H  1644  1  0.67514700  0.36536000  0.91967200  1
  H  1645  1  0.66566700  0.31651800  0.90913000  1
  H  1648  1  0.90182800  0.31574200  0.85335100  1
  H  1649  1  0.93531800  0.34689800  0.84711400  1
  H  1651  1  0.71683400  0.40889600  0.90472400  1
  H  1652  1  0.74238500  0.39995100  0.93805000  1
  H  1677  1  0.66427300  0.69035700  0.59057700  1
  H  1678  1  0.67307600  0.64073500  0.58371800  1
  H  1679  1  0.74951900  0.55169800  0.59531400  1
  H  1680  1  0.80524300  0.52207000  0.61616500  1
  H  1681  1  0.87994900  0.59407000  0.64416200  1
  H  1682  1  0.79919700  0.69558800  0.62319700  1
  H  1683  1  0.76385100  0.61663900  0.66922000  1
  H  1684  1  0.81215900  0.67095100  0.73455600  1
  H  1685  1  0.86864500  0.68934000  0.70379800  1
  H  1686  1  0.84986100  0.62912200  0.56717800  1
  H  1687  1  0.96702600  0.67763900  0.62246000  1
  H  1688  1  0.98379800  0.66294800  0.57565900  1
  H  1691  1  0.73969500  0.60290600  0.57280400  1
  H  1692  1  0.71003700  0.59829800  0.60569800  1
  H  1694  1  0.92141400  0.66837500  0.66540600  1
  H  1695  1  0.88990900  0.69696400  0.64991800  1
  H  1720  1  0.16500500  0.81641000  0.42244600  1
  H  1721  1  0.17397800  0.86597000  0.42969200  1
  H  1722  1  0.25045900  0.95500100  0.41853000  1
  H  1723  1  0.30578300  0.98474800  0.39748800  1
  H  1724  1  0.38013200  0.91297300  0.36859100  1
  H  1725  1  0.29958600  0.81134400  0.38928400  1
  H  1726  1  0.26405700  0.89146800  0.34394200  1
  H  1727  1  0.30903600  0.83687400  0.27794500  1
  H  1728  1  0.36543000  0.81753400  0.30812200  1
  H  1729  1  0.35233000  0.87741000  0.44516500  1
  H  1730  1  0.46699500  0.82888800  0.38793500  1
  H  1731  1  0.48588800  0.84373500  0.43424400  1
  H  1734  1  0.24089500  0.90360900  0.44068700  1
  H  1735  1  0.21080600  0.90855700  0.40799400  1
  H  1737  1  0.41980100  0.83768200  0.34590600  1
  H  1738  1  0.38791400  0.80953600  0.36188100  1
  H  1763  1  0.91516900  0.35358700  0.06841300  1
  H  1764  1  0.92298200  0.34363000  0.11752300  1
  H  1765  1  0.00371046  0.34040700  0.20589700  1
  H  1766  1  0.06132150  0.35705400  0.23683000  1
  H  1767  1  0.13687700  0.38928700  0.16705500  1
  H  1768  1  0.05550950  0.37637400  0.06406900  1
  H  1769  1  0.01654150  0.41780300  0.14114500  1
  H  1770  1  0.09025750  0.48865300  0.10959900  1
  H  1771  1  0.14618000  0.45817000  0.08996100  1
  H  1772  1  0.10033700  0.31563100  0.12705000  1
  H  1773  1  0.22286700  0.36929300  0.08190500  1
  H  1774  1  0.23402300  0.32079500  0.09211300  1
  H  1777  1  0.98909100  0.32415300  0.15289200  1
  H  1778  1  0.96447400  0.35791500  0.16116600  1
  H  1780  1  0.18602500  0.41230800  0.10127200  1
  H  1781  1  0.15455700  0.40556400  0.06941400  1
  H  1806  1  0.41564000  0.15707000  0.94313300  1
  H  1807  1  0.42474300  0.16711100  0.89417800  1
  H  1808  1  0.50551500  0.16741100  0.80597000  1
  H  1809  1  0.56256600  0.14965500  0.77528900  1
  H  1810  1  0.63688500  0.11722700  0.84549700  1
  H  1811  1  0.55437800  0.13087000  0.94813100  1
  H  1812  1  0.51609700  0.08989800  0.87147400  1
  H  1813  1  0.58927600  0.01891000  0.90318300  1
  H  1814  1  0.64541800  0.04923700  0.92274800  1
  H  1815  1  0.60091100  0.19179700  0.88521300  1
  H  1816  1  0.72317700  0.13777100  0.93020100  1
  H  1817  1  0.73472800  0.18621000  0.91988800  1
  H  1820  1  0.49201400  0.18469000  0.85889300  1
  H  1821  1  0.46549500  0.15144600  0.85078100  1
  H  1823  1  0.68571200  0.09484500  0.91108100  1
  H  1824  1  0.65455700  0.10186100  0.94300300  1
  H  1830  1  0.22464200  0.22750600  0.36037700  1
  H  1832  1  0.20506300  0.22756800  0.44928800  1
  H  1844  1  0.72492600  0.28009300  0.65241500  1
  H  1846  1  0.70291100  0.28049100  0.56370700  1
  H  1858  1  0.47351400  0.89488400  0.98014800  1
  H  1860  1  0.45801400  0.80569200  0.98163200  1
  H  1872  1  0.98141800  0.61396100  0.03294800  1
  H  1874  1  0.94600300  0.70096400  0.03308700  1
  H  1886  1  0.67710900  0.78024300  0.64881500  1
  H  1888  1  0.69308400  0.77844600  0.55968000  1
  H  1900  1  0.17703800  0.72683400  0.36394700  1
  H  1902  1  0.19460500  0.72836000  0.45299200  1
  H  1914  1  0.42526200  0.10357600  0.03259500  1
  H  1916  1  0.44377800  0.19244400  0.02953600  1
  H  1928  1  0.91977300  0.40262900  0.98006800  1
  H  1930  1  0.95320400  0.31541100  0.98140400  1
  H  1942  1  0.72812900  0.72768000  0.85106000  1
  H  1944  1  0.70583000  0.72863300  0.93964700  1
  H  1956  1  0.22850700  0.77971300  0.16234400  1
  H  1958  1  0.20367700  0.77963600  0.07400600  1
  H  1970  1  0.97491200  0.40159500  0.48095600  1
  H  1972  1  0.95461400  0.31273700  0.48113300  1
  H  1984  1  0.48478500  0.10806100  0.53130900  1
  H  1986  1  0.43954100  0.19323900  0.53425500  1
  H  1998  1  0.17586600  0.28010400  0.15765600  1
  H  2000  1  0.19161700  0.27752400  0.06859400  1
  H  2012  1  0.67580200  0.22732500  0.85459800  1
  H  2014  1  0.69309000  0.22949000  0.94356900  1
  H  2026  1  0.92327100  0.59827200  0.53193700  1
  H  2028  1  0.94580400  0.68684300  0.53185400  1
  H  2040  1  0.41522700  0.90669100  0.48127700  1
  H  2042  1  0.45938900  0.82138600  0.47835300  1
  H  2054  1  0.29991200  0.08867800  0.28967900  1
  H  2056  1  0.21899500  0.16204400  0.27971900  1
  H  2068  1  0.79989800  0.41924800  0.72290900  1
  H  2070  1  0.71681000  0.34697300  0.73330200  1
  H  2082  1  0.54669500  0.96933900  0.84363700  1
  H  2084  1  0.46557500  0.98034100  0.91674800  1
  H  2096  1  0.04688850  0.53837300  0.16940500  1
  H  2098  1  0.96562300  0.52718700  0.09629500  1
  H  2110  1  0.10223200  0.41626000  0.28720200  1
  H  2112  1  0.18433300  0.34344600  0.27707300  1
  H  2124  1  0.60241500  0.09056400  0.72494200  1
  H  2126  1  0.68680100  0.16220300  0.73554000  1
  H  2138  1  0.85630200  0.53381400  0.84590900  1
  H  2140  1  0.93758100  0.52353200  0.91904300  1
  H  2152  1  0.35651900  0.97294100  0.16711700  1
  H  2154  1  0.43895300  0.98400200  0.09453100  1
  H  2166  1  0.60057700  0.91849200  0.72229200  1
  H  2168  1  0.68035300  0.84503300  0.73492200  1
  H  2180  1  0.10069500  0.58835000  0.29054100  1
  H  2182  1  0.18249600  0.66082600  0.27769000  1
  H  2194  1  0.80028000  0.59019600  0.72533500  1
  H  2196  1  0.71734600  0.66195200  0.73936200  1
  H  2208  1  0.30049000  0.91796400  0.28830900  1
  H  2210  1  0.21521500  0.84737100  0.27324200  1
  H  2222  1  0.05585350  0.47018700  0.33907100  1
  H  2224  1  0.96939200  0.48076700  0.40990300  1
  H  2236  1  0.55629300  0.03727200  0.67356800  1
  H  2238  1  0.46965600  0.02678500  0.60294700  1
  H  2250  1  0.34575100  0.03398000  0.34017100  1
  H  2252  1  0.43264600  0.02253600  0.41055200  1
  H  2264  1  0.84647400  0.47289700  0.67297700  1
  H  2266  1  0.93322000  0.48496800  0.60251000  1
  C  1  1  0.92070900  0.14531000  0.40759200  1
  C  2  1  0.95709100  0.15876400  0.39240900  1
  C  3  1  0.90980100  0.16032000  0.34773600  1
  C  4  1  0.87696500  0.14116000  0.35953300  1
  C  5  1  0.84245700  0.13029900  0.34057300  1
  C  6  1  0.83850900  0.13980600  0.31176800  1
  C  7  1  0.86921300  0.16129500  0.30241700  1
  C  8  1  0.90483800  0.17094300  0.31978200  1
  C  9  1  0.99995200  0.16420400  0.40546300  1
  C  10  1  0.00746400  0.15711900  0.43403700  1
  C  11  1  0.97131500  0.14624700  0.45085900  1
  C  12  1  0.92840200  0.14032400  0.43744600  1
  C  13  1  0.83520400  0.15044900  0.40340000  1
  C  14  1  0.80158100  0.13480200  0.41895300  1
  C  15  1  0.84841700  0.09005400  0.41638300  1
  C  16  1  0.87872500  0.10251900  0.39607300  1
  C  17  1  0.85423200  0.06168200  0.42563000  1
  C  18  1  0.88828900  0.04459600  0.41365600  1
  C  19  1  0.91655500  0.05470800  0.39125100  1
  C  20  1  0.91191900  0.08391400  0.38312200  1
  C  21  1  0.82541700  0.18017300  0.39856100  1
  C  22  1  0.78339800  0.19328200  0.40738000  1
  C  23  1  0.75021800  0.17577100  0.42073800  1
  C  24  1  0.75963800  0.14735300  0.42726100  1
  C  37  1  0.87777300  0.13494100  0.39160300  1
  C  38  1  0.80862400  0.10517600  0.42846500  1
  C  41  1  0.95168100  0.16924500  0.36296900  1
  C  44  1  0.42064400  0.36150400  0.60580700  1
  C  45  1  0.45591500  0.34719100  0.62122600  1
  C  46  1  0.40787100  0.34652000  0.66557500  1
  C  47  1  0.37620100  0.36632600  0.65360700  1
  C  48  1  0.34188000  0.37771700  0.67240000  1
  C  49  1  0.33704600  0.36819600  0.70116400  1
  C  50  1  0.36648600  0.34607500  0.71060800  1
  C  51  1  0.40196300  0.33589000  0.69345200  1
  C  52  1  0.49865200  0.34076200  0.60850800  1
  C  53  1  0.50710200  0.34767600  0.58002400  1
  C  54  1  0.47211300  0.35955200  0.56290500  1
  C  55  1  0.42931400  0.36645600  0.57602300  1
  C  56  1  0.33504200  0.35710500  0.60955800  1
  C  57  1  0.30177400  0.37289200  0.59385600  1
  C  58  1  0.34929400  0.41734800  0.59636300  1
  C  59  1  0.37927200  0.40479200  0.61681000  1
  C  60  1  0.35543300  0.44568500  0.58709700  1
  C  61  1  0.38942800  0.46269500  0.59923000  1
  C  62  1  0.41746300  0.45251600  0.62172400  1
  C  63  1  0.41249000  0.42331600  0.62985500  1
  C  64  1  0.32478100  0.32744700  0.61442100  1
  C  65  1  0.28265700  0.31454500  0.60550100  1
  C  66  1  0.24978100  0.33223700  0.59208400  1
  C  67  1  0.25967500  0.36057600  0.58550300  1
  C  80  1  0.37771400  0.37239900  0.62148900  1
  C  81  1  0.30938100  0.40241100  0.58421000  1
  C  84  1  0.44946000  0.33675600  0.65058900  1
  C  87  1  0.16655200  0.85127900  0.89415000  1
  C  88  1  0.20302400  0.86623300  0.90782400  1
  C  89  1  0.15473600  0.91019000  0.91312100  1
  C  90  1  0.12143900  0.89914400  0.89384900  1
  C  91  1  0.08684300  0.91863800  0.88404700  1
  C  92  1  0.08387300  0.94723300  0.89424700  1
  C  93  1  0.11489500  0.95572900  0.91589700  1
  C  94  1  0.15023000  0.93775100  0.92484700  1
  C  95  1  0.24679000  0.85375600  0.91135300  1
  C  96  1  0.25514100  0.82583800  0.90242400  1
  C  97  1  0.21908000  0.80877700  0.89173500  1
  C  98  1  0.17523000  0.82184100  0.88732300  1
  C  99  1  0.08115900  0.85459400  0.90223000  1
  C  100  1  0.04512100  0.84095700  0.88683800  1
  C  101  1  0.08259500  0.85140700  0.83990700  1
  C  102  1  0.11991100  0.86572000  0.85335000  1
  C  103  1  0.07869300  0.85012700  0.80995900  1
  C  104  1  0.11142200  0.86315500  0.79271800  1
  C  105  1  0.14996000  0.87713600  0.80462200  1
  C  106  1  0.15389400  0.87812600  0.83492300  1
  C  107  1  0.07436000  0.85737300  0.93255000  1
  C  108  1  0.03359400  0.84777700  0.94664700  1
  C  109  1  0.99921300  0.83480100  0.92979100  1
  C  110  1  0.00530900  0.83073900  0.90061700  1
  C  123  1  0.12235500  0.86737400  0.88600900  1
  C  124  1  0.04511100  0.83754100  0.85565400  1
  C  127  1  0.19708400  0.89474200  0.92058500  1
  C  130  1  0.66602700  0.65649900  0.11900800  1
  C  131  1  0.70229500  0.64169700  0.10497200  1
  C  132  1  0.65403900  0.59773100  0.09964500  1
  C  133  1  0.62092400  0.60863200  0.11912500  1
  C  134  1  0.58653700  0.58903400  0.12899700  1
  C  135  1  0.58372700  0.56042100  0.11880000  1
  C  136  1  0.61458600  0.55205500  0.09701000  1
  C  137  1  0.64954400  0.57020200  0.08783700  1
  C  138  1  0.74596800  0.65424700  0.10125400  1
  C  139  1  0.75436900  0.68211100  0.11032300  1
  C  140  1  0.71852100  0.69902300  0.12151900  1
  C  141  1  0.67477600  0.68587300  0.12606400  1
  C  142  1  0.58051900  0.65335500  0.11149000  1
  C  143  1  0.54510700  0.66712500  0.12730600  1
  C  144  1  0.58346900  0.65618700  0.17382600  1
  C  145  1  0.62018500  0.64166300  0.15998100  1
  C  146  1  0.58020200  0.65730100  0.20380900  1
  C  147  1  0.61295900  0.64385600  0.22069500  1
  C  148  1  0.65091600  0.62958400  0.20841400  1
  C  149  1  0.65425900  0.62884500  0.17806700  1
  C  150  1  0.57283600  0.65075600  0.08122400  1
  C  151  1  0.53182200  0.66059500  0.06750200  1
  C  152  1  0.49804700  0.67352000  0.08490500  1
  C  153  1  0.50502800  0.67751700  0.11400200  1
  C  166  1  0.62197600  0.64032700  0.12727600  1
  C  167  1  0.54596300  0.67046400  0.15848900  1
  C  170  1  0.69618400  0.61330300  0.09199400  1
  C  173  1  0.58533000  0.35725700  0.40410800  1
  C  174  1  0.55109100  0.34214900  0.38854500  1
  C  175  1  0.59895900  0.34263600  0.34416500  1
  C  176  1  0.63013000  0.36259600  0.35637200  1
  C  177  1  0.66454100  0.37422000  0.33776300  1
  C  178  1  0.66961700  0.36499400  0.30891100  1
  C  179  1  0.64016900  0.34305300  0.29908700  1
  C  180  1  0.60488100  0.33246400  0.31611900  1
  C  181  1  0.50860800  0.33483400  0.40102200  1
  C  182  1  0.49932900  0.34175800  0.42936100  1
  C  183  1  0.53311500  0.35455500  0.44683500  1
  C  184  1  0.57556600  0.36255800  0.43375500  1
  C  185  1  0.67089000  0.35242600  0.40008300  1
  C  186  1  0.70597800  0.36782000  0.41459700  1
  C  187  1  0.65910100  0.41262800  0.41367100  1
  C  188  1  0.62779500  0.40054100  0.39371400  1
  C  189  1  0.65379400  0.44086500  0.42343500  1
  C  190  1  0.61939400  0.45821000  0.41221400  1
  C  191  1  0.59042600  0.44856800  0.38993500  1
  C  192  1  0.59453600  0.41946600  0.38132900  1
  C  193  1  0.67935700  0.32256700  0.39542800  1
  C  194  1  0.72190500  0.30935100  0.40274000  1
  C  195  1  0.75671800  0.32640600  0.41490700  1
  C  196  1  0.74833400  0.35494000  0.42164200  1
  C  209  1  0.62845500  0.36823300  0.38859900  1
  C  210  1  0.69970200  0.39736500  0.42454700  1
  C  213  1  0.55798900  0.33199800  0.35913600  1
  C  216  1  0.08458500  0.15063400  0.60942600  1
  C  217  1  0.05095400  0.16568300  0.62553600  1
  C  218  1  0.10030000  0.16500500  0.66924600  1
  C  219  1  0.13066100  0.14480700  0.65665200  1
  C  220  1  0.16520800  0.13278900  0.67491900  1
  C  221  1  0.17123000  0.14187100  0.70375800  1
  C  222  1  0.14276800  0.16420100  0.71384400  1
  C  223  1  0.10734100  0.17518000  0.69718500  1
  C  224  1  0.00794600  0.17288800  0.61376300  1
  C  225  1  0.99765500  0.16605800  0.58554800  1
  C  226  1  0.03090500  0.15374100  0.56730300  1
  C  227  1  0.07378000  0.14560100  0.57986000  1
  C  228  1  0.17026600  0.15540300  0.61268300  1
  C  229  1  0.20515800  0.14017300  0.59781900  1
  C  230  1  0.15845500  0.09530600  0.59870000  1
  C  231  1  0.12740200  0.10720600  0.61892900  1
  C  232  1  0.15328500  0.06708300  0.58886800  1
  C  233  1  0.11941700  0.04951800  0.60035400  1
  C  234  1  0.09063200  0.05900800  0.62278500  1
  C  235  1  0.09447900  0.08812000  0.63141400  1
  C  236  1  0.17875500  0.18522400  0.61753500  1
  C  237  1  0.22120800  0.19851000  0.61016700  1
  C  238  1  0.25591300  0.18158400  0.59769900  1
  C  239  1  0.24740100  0.15313700  0.59066300  1
  C  252  1  0.12811900  0.13946400  0.62437800  1
  C  253  1  0.19876400  0.11072600  0.58763200  1
  C  256  1  0.05900500  0.17587000  0.65481600  1
  C  259  1  0.34037800  0.65175800  0.89910500  1
  C  260  1  0.30562200  0.63665100  0.91427700  1
  C  261  1  0.35397100  0.59259300  0.91729000  1
  C  262  1  0.38567200  0.60388300  0.89714000  1
  C  263  1  0.42003900  0.58459600  0.88657200  1
  C  264  1  0.42416200  0.55600500  0.89668500  1
  C  265  1  0.39430100  0.54720300  0.91882500  1
  C  266  1  0.35938400  0.56497000  0.92870000  1
  C  267  1  0.26223500  0.64886900  0.91964600  1
  C  268  1  0.25264300  0.67666900  0.91104900  1
  C  269  1  0.28692300  0.69410400  0.89869200  1
  C  270  1  0.33019100  0.68103800  0.89213600  1
  C  271  1  0.42601200  0.64769100  0.90650000  1
  C  272  1  0.46461600  0.65871600  0.89142200  1
  C  273  1  0.42501200  0.65234800  0.84439500  1
  C  274  1  0.38683800  0.63852300  0.85745300  1
  C  275  1  0.42800000  0.65541800  0.81453200  1
  C  276  1  0.39398100  0.64420200  0.79696700  1
  C  277  1  0.35562200  0.62970000  0.80847900  1
  C  278  1  0.35217200  0.62737200  0.83873500  1
  C  279  1  0.43093400  0.64551100  0.93694900  1
  C  280  1  0.47286600  0.65221200  0.95123600  1
  C  281  1  0.51056800  0.66154000  0.93483700  1
  C  282  1  0.50600800  0.66569100  0.90551900  1
  C  295  1  0.38442000  0.63586800  0.89003500  1
  C  296  1  0.46490800  0.66310000  0.86036200  1
  C  299  1  0.31265500  0.60804500  0.92654600  1
  C  302  1  0.84032200  0.85577000  0.11438700  1
  C  303  1  0.80582400  0.87103500  0.09915000  1
  C  304  1  0.85508500  0.91467500  0.09574700  1
  C  305  1  0.88653200  0.90331800  0.11601400  1
  C  306  1  0.92101200  0.92250200  0.12661200  1
  C  307  1  0.92554500  0.95104800  0.11641100  1
  C  308  1  0.89588300  0.95990000  0.09417500  1
  C  309  1  0.86089700  0.94222300  0.08423600  1
  C  310  1  0.76217900  0.85910800  0.09393800  1
  C  311  1  0.75211000  0.83141700  0.10269000  1
  C  312  1  0.78617700  0.81376300  0.11496700  1
  C  313  1  0.82966400  0.82657800  0.12145200  1
  C  314  1  0.92595700  0.85892400  0.10715000  1
  C  315  1  0.96337100  0.84668300  0.12244800  1
  C  316  1  0.92407300  0.85461300  0.16931800  1
  C  317  1  0.88666600  0.86901300  0.15603300  1
  C  318  1  0.92691000  0.85191100  0.19922000  1
  C  319  1  0.89342400  0.86397300  0.21660700  1
  C  320  1  0.85560100  0.87883500  0.20487700  1
  C  321  1  0.85234800  0.88086400  0.17458100  1
  C  322  1  0.93169000  0.86116900  0.07674000  1
  C  323  1  0.97322700  0.85312800  0.06266300  1
  C  324  1  0.00952600  0.84216600  0.07930600  1
  C  325  1  0.00421400  0.83820800  0.10858200  1
  C  338  1  0.88461300  0.87140300  0.12340500  1
  C  339  1  0.96316400  0.84257000  0.15353900  1
  C  342  1  0.81344900  0.89947100  0.08662600  1
  C  345  1  0.08968500  0.86628200  0.60399500  1
  C  346  1  0.05269000  0.85279400  0.61859800  1
  C  347  1  0.09974000  0.84769400  0.66316300  1
  C  348  1  0.13368200  0.86660900  0.65225900  1
  C  349  1  0.16762200  0.87668900  0.67205600  1
  C  350  1  0.16932200  0.86717300  0.70092100  1
  C  351  1  0.13765100  0.84586600  0.70939200  1
  C  352  1  0.10315100  0.83647400  0.69099700  1
  C  353  1  0.00923500  0.84941700  0.60563000  1
  C  354  1  0.00176100  0.85826400  0.57756300  1
  C  355  1  0.03840500  0.86879100  0.56090300  1
  C  356  1  0.08188200  0.87308500  0.57447000  1
  C  357  1  0.17490400  0.85800300  0.60794500  1
  C  358  1  0.21055900  0.87331600  0.59384100  1
  C  359  1  0.17297000  0.92028800  0.60394100  1
  C  360  1  0.13608600  0.90695200  0.61876500  1
  C  361  1  0.17695200  0.95022300  0.60257900  1
  C  362  1  0.14503800  0.96751300  0.61630900  1
  C  363  1  0.10703900  0.95573800  0.63095100  1
  C  364  1  0.10272000  0.92545200  0.63171600  1
  C  365  1  0.18200300  0.82773200  0.61108700  1
  C  366  1  0.22277900  0.81361400  0.60147900  1
  C  367  1  0.25686200  0.83045700  0.58817300  1
  C  368  1  0.25038600  0.85953400  0.58366000  1
  C  381  1  0.13355200  0.87430200  0.62046000  1
  C  382  1  0.21003800  0.90442500  0.58976100  1
  C  385  1  0.05780800  0.84017900  0.64725100  1
  C  388  1  0.58974200  0.64150500  0.40823200  1
  C  389  1  0.55372500  0.65577700  0.39341900  1
  C  390  1  0.60164500  0.66015700  0.34916600  1
  C  391  1  0.63450800  0.64059400  0.36020000  1
  C  392  1  0.66825600  0.62999400  0.34052900  1
  C  393  1  0.67074200  0.63956000  0.31169400  1
  C  394  1  0.64026200  0.66149700  0.30315700  1
  C  395  1  0.60594700  0.67141500  0.32139600  1
  C  396  1  0.51023500  0.65997900  0.40606200  1
  C  397  1  0.50177500  0.65114900  0.43400100  1
  C  398  1  0.53740700  0.63970700  0.45092800  1
  C  399  1  0.58096600  0.63468800  0.43767800  1
  C  400  1  0.67512300  0.64915100  0.40469600  1
  C  401  1  0.71052800  0.63372000  0.41891200  1
  C  402  1  0.67253000  0.58691300  0.40875900  1
  C  403  1  0.63578100  0.60036700  0.39390600  1
  C  404  1  0.67639900  0.55697100  0.41002000  1
  C  405  1  0.64451200  0.53979200  0.39615000  1
  C  406  1  0.60653100  0.55166000  0.38156400  1
  C  407  1  0.60232200  0.58196300  0.38091000  1
  C  408  1  0.68255900  0.67938600  0.40154700  1
  C  409  1  0.72340400  0.69335000  0.41124300  1
  C  410  1  0.75727900  0.67638000  0.42459800  1
  C  411  1  0.75049000  0.64733600  0.42910800  1
  C  424  1  0.63370000  0.63302500  0.39205300  1
  C  425  1  0.70968200  0.60262600  0.42300800  1
  C  428  1  0.55994300  0.66845900  0.36488500  1
  C  431  1  0.83608100  0.15388200  0.11715400  1
  C  432  1  0.79758100  0.13901800  0.10566500  1
  C  433  1  0.83970300  0.09240500  0.10625500  1
  C  434  1  0.87783500  0.10476200  0.12071100  1
  C  435  1  0.91313000  0.08553700  0.13018200  1
  C  436  1  0.91018900  0.05550900  0.12573400  1
  C  437  1  0.87206700  0.04480000  0.11042700  1
  C  438  1  0.83762200  0.06288300  0.10060300  1
  C  439  1  0.75501200  0.15268800  0.10107500  1
  C  440  1  0.74934500  0.18147700  0.10752800  1
  C  441  1  0.78683700  0.19808100  0.11690600  1
  C  442  1  0.82980500  0.18401100  0.12183000  1
  C  443  1  0.92164100  0.14797400  0.10936600  1
  C  444  1  0.95769300  0.16210100  0.12433900  1
  C  445  1  0.91885200  0.15525600  0.17144500  1
  C  446  1  0.88159000  0.14036100  0.15862000  1
  C  447  1  0.92259700  0.15804300  0.20129700  1
  C  448  1  0.89014000  0.14553200  0.21909300  1
  C  449  1  0.85165700  0.13097200  0.20786400  1
  C  450  1  0.84754400  0.12885700  0.17763300  1
  C  451  1  0.92940300  0.14325900  0.07933100  1
  C  452  1  0.97104000  0.15153300  0.06517700  1
  C  453  1  0.00556300  0.16455200  0.08190300  1
  C  454  1  0.99855600  0.17058900  0.11061200  1
  C  467  1  0.87935100  0.13707800  0.12603700  1
  C  468  1  0.95672000  0.16795900  0.15515000  1
  C  471  1  0.79866400  0.10862000  0.09788200  1
  C  474  1  0.33662900  0.35328500  0.89525300  1
  C  475  1  0.29821100  0.36809800  0.90691100  1
  C  476  1  0.34041600  0.41467200  0.90650200  1
  C  477  1  0.37850200  0.40236000  0.89196100  1
  C  478  1  0.41386600  0.42158700  0.88260700  1
  C  479  1  0.41102500  0.45158900  0.88722900  1
  C  480  1  0.37290000  0.46224800  0.90257600  1
  C  481  1  0.33843200  0.44415600  0.91233800  1
  C  482  1  0.25565800  0.35441800  0.91153000  1
  C  483  1  0.24995700  0.32565600  0.90497200  1
  C  484  1  0.28736000  0.30911000  0.89535100  1
  C  485  1  0.33030400  0.32319100  0.89042000  1
  C  486  1  0.42232200  0.35894500  0.90265100  1
  C  487  1  0.45785800  0.34470700  0.88731600  1
  C  488  1  0.41828500  0.35203500  0.84052200  1
  C  489  1  0.38155200  0.36714000  0.85368300  1
  C  490  1  0.42151700  0.34943800  0.81062900  1
  C  491  1  0.38908700  0.36236500  0.79311500  1
  C  492  1  0.35111700  0.37719700  0.80466200  1
  C  493  1  0.34747500  0.37906100  0.83494100  1
  C  494  1  0.43087200  0.36354100  0.93263700  1
  C  495  1  0.47272100  0.35504900  0.94646700  1
  C  496  1  0.50672300  0.34207000  0.92927300  1
  C  497  1  0.49896500  0.33607800  0.90063700  1
  C  510  1  0.37984000  0.37010300  0.88632200  1
  C  511  1  0.45612800  0.33891500  0.85650000  1
  C  514  1  0.29935600  0.39845500  0.91483000  1
  C  517  1  0.41718400  0.64591200  0.60854500  1
  C  518  1  0.45168800  0.66135600  0.62359000  1
  C  519  1  0.40359000  0.66393100  0.66783400  1
  C  520  1  0.37207100  0.64369200  0.65651900  1
  C  521  1  0.33868900  0.63231400  0.67601900  1
  C  522  1  0.33555900  0.64152000  0.70496500  1
  C  523  1  0.36510300  0.66378800  0.71389100  1
  C  524  1  0.39882300  0.67464500  0.69579100  1
  C  525  1  0.49500000  0.66688600  0.61133200  1
  C  526  1  0.50477000  0.65815000  0.58358700  1
  C  527  1  0.47066100  0.64561100  0.56614100  1
  C  528  1  0.42746700  0.63891600  0.57926300  1
  C  529  1  0.33160300  0.65316500  0.61252700  1
  C  530  1  0.29404100  0.63798900  0.60030700  1
  C  531  1  0.33333333  0.59102600  0.60769000  1
  C  532  1  0.37106700  0.60416100  0.62186800  1
  C  533  1  0.32989000  0.56112900  0.60532200  1
  C  534  1  0.36293300  0.54364400  0.61769500  1
  C  535  1  0.40117500  0.55520600  0.63227500  1
  C  536  1  0.40518500  0.58549400  0.63377100  1
  C  537  1  0.32586100  0.68356200  0.61507700  1
  C  538  1  0.28420400  0.69772300  0.60736700  1
  C  539  1  0.24773300  0.68114300  0.59653000  1
  C  540  1  0.25304000  0.65191500  0.59223600  1
  C  553  1  0.37322600  0.63676200  0.62447800  1
  C  554  1  0.29422400  0.60694600  0.59583500  1
  C  557  1  0.44442800  0.67369600  0.65216700  1
  C  560  1  0.91790700  0.86069900  0.40356500  1
  C  561  1  0.95161600  0.84512100  0.38798000  1
  C  562  1  0.90211100  0.84302100  0.34434600  1
  C  563  1  0.87154100  0.86358800  0.35606300  1
  C  564  1  0.83817200  0.87552900  0.33688400  1
  C  565  1  0.83412100  0.86658500  0.30788700  1
  C  566  1  0.86260700  0.84390400  0.29864800  1
  C  567  1  0.89624400  0.83243900  0.31642600  1
  C  568  1  0.99537500  0.83952200  0.39952300  1
  C  569  1  0.00625700  0.84816900  0.42712400  1
  C  570  1  0.97290700  0.86046800  0.44532900  1
  C  571  1  0.92936900  0.86749200  0.43274400  1
  C  572  1  0.83216800  0.85370700  0.40031600  1
  C  573  1  0.79477500  0.86879800  0.41284200  1
  C  574  1  0.83408300  0.91576500  0.40570200  1
  C  575  1  0.87160700  0.90272800  0.39119700  1
  C  576  1  0.83070600  0.94563800  0.40832700  1
  C  577  1  0.86351100  0.96320000  0.39583400  1
  C  578  1  0.90156400  0.95174300  0.38099100  1
  C  579  1  0.90555000  0.92147200  0.37922900  1
  C  580  1  0.82635200  0.82333900  0.39757100  1
  C  581  1  0.78474300  0.80916400  0.40531300  1
  C  582  1  0.74837200  0.82567100  0.41638400  1
  C  583  1  0.75383300  0.85484200  0.42097300  1
  C  596  1  0.87358100  0.87016300  0.38818300  1
  C  597  1  0.79510100  0.89978700  0.41761300  1
  C  600  1  0.94308700  0.83277200  0.35953900  1
  C  603  1  0.67150200  0.35735500  0.11274300  1
  C  604  1  0.70816600  0.37218900  0.09907700  1
  C  605  1  0.66880600  0.41937600  0.10443800  1
  C  606  1  0.63146500  0.40676100  0.11942800  1
  C  607  1  0.59717000  0.42590400  0.13040300  1
  C  608  1  0.60079200  0.45606700  0.12737200  1
  C  609  1  0.63891400  0.46713500  0.11233000  1
  C  610  1  0.67195300  0.44915800  0.10064300  1
  C  611  1  0.74932400  0.35833400  0.09137100  1
  C  612  1  0.75581400  0.32958000  0.09748100  1
  C  613  1  0.72057400  0.31297200  0.10988800  1
  C  614  1  0.67878200  0.32728900  0.11757000  1
  C  615  1  0.58605500  0.36542000  0.10601200  1
  C  616  1  0.54669900  0.35481600  0.12065800  1
  C  617  1  0.58785700  0.35534600  0.16758200  1
  C  618  1  0.62668100  0.36924600  0.15541300  1
  C  619  1  0.58486500  0.35019000  0.19715500  1
  C  620  1  0.61899100  0.36008400  0.21542600  1
  C  621  1  0.65782500  0.37481600  0.20489400  1
  C  622  1  0.66169700  0.37870400  0.17483500  1
  C  623  1  0.58074200  0.36975900  0.07579000  1
  C  624  1  0.53784300  0.36555900  0.06144800  1
  C  625  1  0.49940500  0.35732700  0.07780300  1
  C  626  1  0.50416100  0.35100200  0.10669500  1
  C  639  1  0.62905700  0.37422200  0.12308400  1
  C  640  1  0.54688500  0.34729200  0.15112300  1
  C  643  1  0.70727800  0.40291100  0.09266600  1
  C  646  1  0.17176800  0.15003200  0.89954700  1
  C  647  1  0.20833900  0.13510200  0.91319700  1
  C  648  1  0.16837600  0.08808700  0.90815100  1
  C  649  1  0.13113200  0.10078300  0.89313100  1
  C  650  1  0.09665300  0.08172700  0.88223400  1
  C  651  1  0.10006700  0.05155100  0.88529900  1
  C  652  1  0.13806900  0.04042100  0.90041500  1
  C  653  1  0.17126100  0.05831300  0.91205200  1
  C  654  1  0.24967500  0.14881500  0.92078700  1
  C  655  1  0.25642300  0.17752200  0.91457600  1
  C  656  1  0.22123600  0.19424400  0.90226200  1
  C  657  1  0.17930200  0.18006000  0.89465000  1
  C  658  1  0.08621600  0.14259400  0.90612300  1
  C  659  1  0.04768400  0.15411200  0.89131200  1
  C  660  1  0.08899100  0.15241700  0.84447700  1
  C  661  1  0.12719900  0.13805000  0.85684700  1
  C  662  1  0.08629100  0.15733900  0.81485400  1
  C  663  1  0.12008600  0.14677000  0.79673200  1
  C  664  1  0.15841900  0.13167900  0.80745800  1
  C  665  1  0.16204400  0.12804100  0.83756900  1
  C  666  1  0.08017500  0.13815900  0.93630000  1
  C  667  1  0.03730900  0.14316000  0.95044100  1
  C  668  1  0.99983200  0.15274500  0.93394000  1
  C  669  1  0.00532200  0.15903900  0.90511000  1
  C  682  1  0.12917400  0.13330400  0.88923600  1
  C  683  1  0.04845800  0.16147000  0.86081400  1
  C  686  1  0.20713600  0.10441800  0.91974000  1
  C  689  1  0.77192600  0.22310500  0.40512300  1
  C  690  1  0.76741400  0.23757200  0.37874500  1
  C  691  1  0.74824400  0.26557300  0.37702000  1
  C  692  1  0.73122800  0.27925900  0.40205000  1
  C  693  1  0.73521400  0.26478400  0.42865300  1
  C  695  1  0.75584500  0.23747800  0.42980100  1
  C  703  1  0.27081800  0.28477400  0.60776700  1
  C  704  1  0.26712800  0.27014500  0.63410900  1
  C  705  1  0.24804100  0.24212700  0.63588400  1
  C  706  1  0.23036700  0.22860700  0.61094800  1
  C  707  1  0.23355400  0.24319800  0.58437600  1
  C  709  1  0.25409100  0.27052600  0.58317900  1
  C  717  1  0.02332400  0.84994900  0.97662600  1
  C  718  1  0.01725200  0.87650500  0.99055100  1
  C  719  1  0.99766200  0.87839700  0.01841500  1
  C  720  1  0.98154300  0.85332000  0.03244800  1
  C  721  1  0.98693900  0.82655000  0.01847100  1
  C  723  1  0.00808400  0.82525900  0.99131000  1
  C  731  1  0.52040700  0.65799100  0.03761000  1
  C  732  1  0.52085100  0.63155300  0.02300600  1
  C  733  1  0.50208400  0.62859900  0.99503500  1
  C  734  1  0.48027700  0.65224200  0.98145300  1
  C  735  1  0.47960300  0.67900100  0.99597700  1
  C  737  1  0.49995500  0.68142300  0.02319800  1
  C  745  1  0.23335600  0.78365700  0.60389400  1
  C  746  1  0.23949700  0.76983600  0.63049500  1
  C  747  1  0.25933800  0.74203600  0.63251900  1
  C  748  1  0.27590700  0.72796000  0.60757900  1
  C  749  1  0.27044000  0.74185000  0.58075100  1
  C  751  1  0.24891100  0.76889700  0.57930600  1
  C  759  1  0.73420300  0.72326800  0.40883200  1
  C  760  1  0.73979100  0.73717700  0.38222900  1
  C  761  1  0.75958000  0.76498200  0.38014900  1
  C  762  1  0.77656200  0.77892700  0.40504400  1
  C  763  1  0.77165700  0.76499400  0.43187800  1
  C  765  1  0.75018100  0.73794200  0.43336800  1
  C  773  1  0.98251200  0.14849400  0.03533800  1
  C  774  1  0.98875100  0.12161000  0.02209600  1
  C  775  1  0.01012700  0.11890400  0.99476900  1
  C  776  1  0.02869100  0.14334000  0.98070800  1
  C  777  1  0.02306700  0.17044000  0.99402700  1
  C  779  1  0.99963600  0.17261000  0.02042700  1
  C  787  1  0.48514300  0.35838700  0.97621600  1
  C  788  1  0.48644000  0.38518300  0.99012700  1
  C  789  1  0.50719100  0.38865900  0.01754000  1
  C  790  1  0.52984100  0.36531300  0.03118600  1
  C  791  1  0.52876400  0.33820500  0.01727300  1
  C  793  1  0.50610400  0.33520800  0.99080000  1
  C  801  1  0.27463600  0.72382200  0.89578100  1
  C  802  1  0.26962500  0.73772900  0.86914600  1
  C  803  1  0.24843000  0.76514800  0.86677300  1
  C  804  1  0.22896200  0.77866600  0.89123000  1
  C  805  1  0.23347300  0.76469700  0.91809400  1
  C  807  1  0.25656500  0.73816700  0.91997500  1
  C  815  1  0.77359000  0.78407200  0.11775500  1
  C  816  1  0.76943900  0.76986100  0.14429300  1
  C  817  1  0.74837200  0.74239900  0.14662200  1
  C  818  1  0.72828400  0.72914900  0.12222200  1
  C  819  1  0.73194000  0.74335900  0.09544900  1
  C  821  1  0.75486100  0.76994500  0.09361800  1
  C  829  1  0.52182100  0.35685300  0.47665900  1
  C  830  1  0.51762200  0.38327400  0.49108100  1
  C  831  1  0.49852800  0.38509300  0.51909300  1
  C  832  1  0.48142600  0.36011000  0.53282000  1
  C  833  1  0.48515400  0.33346600  0.51840400  1
  C  835  1  0.50561900  0.33222900  0.49105300  1
  C  843  1  0.01821100  0.15104800  0.53759800  1
  C  844  1  0.02204400  0.12529300  0.52199900  1
  C  845  1  0.00392000  0.12254100  0.49383300  1
  C  846  1  0.97967900  0.14566300  0.48097600  1
  C  847  1  0.97579300  0.17178400  0.49641900  1
  C  849  1  0.99538800  0.17404200  0.52385600  1
  C  857  1  0.73142100  0.28301700  0.11271000  1
  C  858  1  0.73869400  0.26966800  0.13944200  1
  C  859  1  0.76009900  0.24230600  0.14175200  1
  C  860  1  0.77792300  0.22833600  0.11706100  1
  C  861  1  0.77135500  0.24181500  0.09009800  1
  C  863  1  0.74787600  0.26824700  0.08832600  1
  C  871  1  0.23220700  0.22418000  0.89951100  1
  C  872  1  0.23897200  0.23766800  0.87279200  1
  C  873  1  0.26031600  0.26504300  0.87045600  1
  C  874  1  0.27852200  0.27885100  0.89511800  1
  C  875  1  0.27248600  0.26529300  0.92207600  1
  C  877  1  0.24908800  0.23884200  0.92385500  1
  C  885  1  0.48294600  0.64293300  0.53634400  1
  C  886  1  0.48753300  0.61646000  0.52203800  1
  C  887  1  0.50832300  0.61437600  0.49445200  1
  C  888  1  0.52754000  0.63899500  0.48107700  1
  C  889  1  0.52339600  0.66568200  0.49540500  1
  C  891  1  0.50078400  0.66726600  0.52211700  1
  C  899  1  0.98669100  0.86358800  0.47494600  1
  C  900  1  0.98423900  0.88951000  0.49039400  1
  C  901  1  0.00419300  0.89248300  0.51812500  1
  C  902  1  0.02942200  0.86956900  0.53071700  1
  C  903  1  0.03186800  0.84328700  0.51538500  1
  C  905  1  0.01019600  0.84073400  0.48855100  1
  C  913  1  0.81233100  0.12605000  0.28968200  1
  C  914  1  0.83260100  0.10160300  0.27724400  1
  C  915  1  0.83622200  0.09872400  0.24711800  1
  C  916  1  0.81970800  0.12084800  0.22890200  1
  C  917  1  0.79035200  0.14195600  0.24133200  1
  C  919  1  0.78564800  0.14364600  0.27142300  1
  C  927  1  0.31125900  0.38237000  0.72319800  1
  C  928  1  0.33224600  0.40667800  0.73548400  1
  C  929  1  0.33611600  0.40962700  0.76559500  1
  C  930  1  0.31897400  0.38776700  0.78387700  1
  C  931  1  0.28901000  0.36687700  0.77169500  1
  C  933  1  0.28416700  0.36515500  0.74162300  1
  C  941  1  0.05857200  0.96991400  0.88085500  1
  C  942  1  0.07956100  0.98202100  0.85642600  1
  C  943  1  0.08440300  0.01209200  0.85361500  1
  C  944  1  0.06776100  0.03055500  0.87550900  1
  C  945  1  0.03797100  0.01857000  0.89657900  1
  C  947  1  0.03264000  0.98855700  0.89843400  1
  C  955  1  0.55859800  0.53769100  0.13226800  1
  C  956  1  0.57981700  0.52564400  0.15662400  1
  C  957  1  0.58507900  0.49559100  0.15926600  1
  C  958  1  0.56876000  0.47712100  0.13729500  1
  C  959  1  0.53883400  0.48908400  0.11623800  1
  C  961  1  0.53274700  0.51906900  0.11462900  1
  C  969  1  0.69609800  0.37906500  0.28717000  1
  C  970  1  0.67565600  0.40349500  0.27476900  1
  C  971  1  0.67229300  0.40658400  0.24465400  1
  C  972  1  0.68924100  0.38464000  0.22640400  1
  C  973  1  0.71846200  0.36344900  0.23875800  1
  C  975  1  0.72330400  0.36180700  0.26884300  1
  C  983  1  0.19738000  0.12722300  0.72532500  1
  C  984  1  0.17617500  0.10295500  0.73752800  1
  C  985  1  0.17244400  0.09988900  0.76763200  1
  C  986  1  0.18980500  0.12157600  0.78607400  1
  C  987  1  0.21992900  0.14235800  0.77384800  1
  C  989  1  0.22500600  0.14407500  0.74378800  1
  C  997  1  0.45003400  0.53364500  0.88320600  1
  C  998  1  0.42961600  0.52133700  0.85869300  1
  C  999  1  0.42583300  0.49122400  0.85570900  1
  C  1000  1  0.44291500  0.47292100  0.87758200  1
  C  1001  1  0.47204100  0.48514700  0.89885200  1
  C  1003  1  0.47657700  0.51521300  0.90071200  1
  C  1011  1  0.95099700  0.97349200  0.13012500  1
  C  1012  1  0.92977500  0.98559000  0.15446700  1
  C  1013  1  0.92513900  0.01566700  0.15732500  1
  C  1014  1  0.94187700  0.03416600  0.13549900  1
  C  1015  1  0.97170000  0.02210300  0.11446000  1
  C  1017  1  0.97752900  0.99209700  0.11283100  1
  C  1025  1  0.19381000  0.88104500  0.72366800  1
  C  1026  1  0.17295200  0.90569900  0.73533300  1
  C  1027  1  0.16759500  0.90896700  0.76532200  1
  C  1028  1  0.18298900  0.88700700  0.78412700  1
  C  1029  1  0.21293600  0.86568500  0.77263800  1
  C  1031  1  0.21920500  0.86355900  0.74269800  1
  C  1039  1  0.69488800  0.62534500  0.28898300  1
  C  1040  1  0.67345200  0.60081300  0.27741300  1
  C  1041  1  0.66810100  0.59747000  0.24742800  1
  C  1042  1  0.68416100  0.61920400  0.22860100  1
  C  1043  1  0.71459700  0.64031900  0.23992300  1
  C  1045  1  0.72073500  0.64250300  0.26986100  1
  C  1053  1  0.31133400  0.62697600  0.72741100  1
  C  1054  1  0.33314300  0.60237400  0.73859600  1
  C  1055  1  0.33898200  0.59874600  0.76852100  1
  C  1056  1  0.32270200  0.62010600  0.78775400  1
  C  1057  1  0.29198500  0.64118200  0.77675500  1
  C  1059  1  0.28528600  0.64360800  0.74688800  1
  C  1067  1  0.81026400  0.88178300  0.28565700  1
  C  1068  1  0.83306200  0.90618700  0.27486000  1
  C  1069  1  0.83931000  0.90995700  0.24498700  1
  C  1070  1  0.82288600  0.88887500  0.22550100  1
  C  1071  1  0.79133600  0.86807500  0.23623800  1
  C  1073  1  0.78371800  0.86565800  0.26603900  1
  C  1081  1  0.56528000  0.47053700  0.37515600  1
  C  1082  1  0.58778500  0.48279000  0.35134700  1
  C  1083  1  0.59225900  0.51289600  0.34857200  1
  C  1084  1  0.57457600  0.53110300  0.37035100  1
  C  1085  1  0.54349000  0.51901800  0.39066100  1
  C  1087  1  0.53758200  0.48898200  0.39194200  1
  C  1095  1  0.06573400  0.03694900  0.63755500  1
  C  1096  1  0.08821600  0.02462700  0.66135000  1
  C  1097  1  0.09293600  0.99452500  0.66395800  1
  C  1098  1  0.07518500  0.97632600  0.64220000  1
  C  1099  1  0.04395800  0.98840300  0.62198400  1
  C  1101  1  0.03812200  0.01842900  0.62075900  1
  C  1109  1  0.94227900  0.03319600  0.37623000  1
  C  1110  1  0.91998000  0.02128700  0.35213500  1
  C  1111  1  0.91558200  0.99120500  0.34895600  1
  C  1112  1  0.93348500  0.97259900  0.37036500  1
  C  1113  1  0.96464300  0.98447200  0.39071600  1
  C  1115  1  0.97020400  0.01448000  0.39254800  1
  C  1123  1  0.44301200  0.47401700  0.63693300  1
  C  1124  1  0.42056100  0.48572000  0.66105900  1
  C  1125  1  0.41580200  0.51577300  0.66429000  1
  C  1126  1  0.43335800  0.53443400  0.64283000  1
  C  1127  1  0.46443300  0.52278000  0.62229900  1
  C  1129  1  0.47083000  0.49280800  0.62061900  1
  C  1137  1  0.36778500  0.14531000  0.40759200  1
  C  1138  1  0.40416700  0.15876400  0.39240900  1
  C  1139  1  0.35687700  0.16032000  0.34773600  1
  C  1140  1  0.32404100  0.14116000  0.35953300  1
  C  1141  1  0.28953300  0.13029900  0.34057300  1
  C  1142  1  0.28558500  0.13980600  0.31176800  1
  C  1143  1  0.31628900  0.16129500  0.30241700  1
  C  1144  1  0.35191400  0.17094300  0.31978200  1
  C  1145  1  0.44702800  0.16420400  0.40546300  1
  C  1146  1  0.45454000  0.15711900  0.43403700  1
  C  1147  1  0.41839100  0.14624700  0.45085900  1
  C  1148  1  0.37547800  0.14032400  0.43744600  1
  C  1149  1  0.28228000  0.15044900  0.40340000  1
  C  1150  1  0.24865700  0.13480200  0.41895300  1
  C  1151  1  0.29549300  0.09005400  0.41638300  1
  C  1152  1  0.32580100  0.10251900  0.39607300  1
  C  1153  1  0.30130800  0.06168200  0.42563000  1
  C  1154  1  0.33536500  0.04459600  0.41365600  1
  C  1155  1  0.36363100  0.05470800  0.39125100  1
  C  1156  1  0.35899500  0.08391400  0.38312200  1
  C  1157  1  0.27249300  0.18017300  0.39856100  1
  C  1158  1  0.23047400  0.19328200  0.40738000  1
  C  1159  1  0.19729400  0.17577100  0.42073800  1
  C  1160  1  0.20671400  0.14735300  0.42726100  1
  C  1173  1  0.32484900  0.13494100  0.39160300  1
  C  1174  1  0.25570000  0.10517600  0.42846500  1
  C  1177  1  0.39875700  0.16924500  0.36296900  1
  C  1180  1  0.86772000  0.36150400  0.60580700  1
  C  1181  1  0.90299100  0.34719100  0.62122600  1
  C  1182  1  0.85494700  0.34652000  0.66557500  1
  C  1183  1  0.82327700  0.36632600  0.65360700  1
  C  1184  1  0.78895600  0.37771700  0.67240000  1
  C  1185  1  0.78412200  0.36819600  0.70116400  1
  C  1186  1  0.81356200  0.34607500  0.71060800  1
  C  1187  1  0.84903900  0.33589000  0.69345200  1
  C  1188  1  0.94572800  0.34076200  0.60850800  1
  C  1189  1  0.95417800  0.34767600  0.58002400  1
  C  1190  1  0.91918900  0.35955200  0.56290500  1
  C  1191  1  0.87639000  0.36645600  0.57602300  1
  C  1192  1  0.78211800  0.35710500  0.60955800  1
  C  1193  1  0.74885000  0.37289200  0.59385600  1
  C  1194  1  0.79637000  0.41734800  0.59636300  1
  C  1195  1  0.82634800  0.40479200  0.61681000  1
  C  1196  1  0.80250900  0.44568500  0.58709700  1
  C  1197  1  0.83650400  0.46269500  0.59923000  1
  C  1198  1  0.86453900  0.45251600  0.62172400  1
  C  1199  1  0.85956600  0.42331600  0.62985500  1
  C  1200  1  0.77185700  0.32744700  0.61442100  1
  C  1201  1  0.72973300  0.31454500  0.60550100  1
  C  1202  1  0.69685700  0.33223700  0.59208400  1
  C  1203  1  0.70675100  0.36057600  0.58550300  1
  C  1216  1  0.82479000  0.37239900  0.62148900  1
  C  1217  1  0.75645700  0.40241100  0.58421000  1
  C  1220  1  0.89653600  0.33675600  0.65058900  1
  C  1223  1  0.61362800  0.85127900  0.89415000  1
  C  1224  1  0.65010000  0.86623300  0.90782400  1
  C  1225  1  0.60181200  0.91019000  0.91312100  1
  C  1226  1  0.56851500  0.89914400  0.89384900  1
  C  1227  1  0.53391900  0.91863800  0.88404700  1
  C  1228  1  0.53094900  0.94723300  0.89424700  1
  C  1229  1  0.56197100  0.95572900  0.91589700  1
  C  1230  1  0.59730600  0.93775100  0.92484700  1
  C  1231  1  0.69386600  0.85375600  0.91135300  1
  C  1232  1  0.70221700  0.82583800  0.90242400  1
  C  1233  1  0.66615600  0.80877700  0.89173500  1
  C  1234  1  0.62230600  0.82184100  0.88732300  1
  C  1235  1  0.52823500  0.85459400  0.90223000  1
  C  1236  1  0.49219700  0.84095700  0.88683800  1
  C  1237  1  0.52967100  0.85140700  0.83990700  1
  C  1238  1  0.56698700  0.86572000  0.85335000  1
  C  1239  1  0.52576900  0.85012700  0.80995900  1
  C  1240  1  0.55849800  0.86315500  0.79271800  1
  C  1241  1  0.59703600  0.87713600  0.80462200  1
  C  1242  1  0.60097000  0.87812600  0.83492300  1
  C  1243  1  0.52143600  0.85737300  0.93255000  1
  C  1244  1  0.48067000  0.84777700  0.94664700  1
  C  1245  1  0.44628900  0.83480100  0.92979100  1
  C  1246  1  0.45238500  0.83073900  0.90061700  1
  C  1259  1  0.56943100  0.86737400  0.88600900  1
  C  1260  1  0.49218700  0.83754100  0.85565400  1
  C  1263  1  0.64416000  0.89474200  0.92058500  1
  C  1266  1  0.11310300  0.65649900  0.11900800  1
  C  1267  1  0.14937100  0.64169700  0.10497200  1
  C  1268  1  0.10111500  0.59773100  0.09964500  1
  C  1269  1  0.06800050  0.60863200  0.11912500  1
  C  1270  1  0.03361350  0.58903400  0.12899700  1
  C  1271  1  0.03080350  0.56042100  0.11880000  1
  C  1272  1  0.06166250  0.55205500  0.09701000  1
  C  1273  1  0.09662050  0.57020200  0.08783700  1
  C  1274  1  0.19304400  0.65424700  0.10125400  1
  C  1275  1  0.20144500  0.68211100  0.11032300  1
  C  1276  1  0.16559700  0.69902300  0.12151900  1
  C  1277  1  0.12185200  0.68587300  0.12606400  1
  C  1278  1  0.02759550  0.65335500  0.11149000  1
  C  1279  1  0.99218300  0.66712500  0.12730600  1
  C  1280  1  0.03054550  0.65618700  0.17382600  1
  C  1281  1  0.06726150  0.64166300  0.15998100  1
  C  1282  1  0.02727850  0.65730100  0.20380900  1
  C  1283  1  0.06003550  0.64385600  0.22069500  1
  C  1284  1  0.09799250  0.62958400  0.20841400  1
  C  1285  1  0.10133500  0.62884500  0.17806700  1
  C  1286  1  0.01991250  0.65075600  0.08122400  1
  C  1287  1  0.97889800  0.66059500  0.06750200  1
  C  1288  1  0.94512300  0.67352000  0.08490500  1
  C  1289  1  0.95210400  0.67751700  0.11400200  1
  C  1302  1  0.06905250  0.64032700  0.12727600  1
  C  1303  1  0.99303900  0.67046400  0.15848900  1
  C  1306  1  0.14326000  0.61330300  0.09199400  1
  C  1309  1  0.03240650  0.35725700  0.40410800  1
  C  1310  1  0.99816700  0.34214900  0.38854500  1
  C  1311  1  0.04603550  0.34263600  0.34416500  1
  C  1312  1  0.07720650  0.36259600  0.35637200  1
  C  1313  1  0.11161700  0.37422000  0.33776300  1
  C  1314  1  0.11669300  0.36499400  0.30891100  1
  C  1315  1  0.08724550  0.34305300  0.29908700  1
  C  1316  1  0.05195750  0.33246400  0.31611900  1
  C  1317  1  0.95568400  0.33483400  0.40102200  1
  C  1318  1  0.94640500  0.34175800  0.42936100  1
  C  1319  1  0.98019100  0.35455500  0.44683500  1
  C  1320  1  0.02264250  0.36255800  0.43375500  1
  C  1321  1  0.11796600  0.35242600  0.40008300  1
  C  1322  1  0.15305400  0.36782000  0.41459700  1
  C  1323  1  0.10617700  0.41262800  0.41367100  1
  C  1324  1  0.07487150  0.40054100  0.39371400  1
  C  1325  1  0.10087000  0.44086500  0.42343500  1
  C  1326  1  0.06647050  0.45821000  0.41221400  1
  C  1327  1  0.03750250  0.44856800  0.38993500  1
  C  1328  1  0.04161250  0.41946600  0.38132900  1
  C  1329  1  0.12643300  0.32256700  0.39542800  1
  C  1330  1  0.16898100  0.30935100  0.40274000  1
  C  1331  1  0.20379400  0.32640600  0.41490700  1
  C  1332  1  0.19541000  0.35494000  0.42164200  1
  C  1345  1  0.07553150  0.36823300  0.38859900  1
  C  1346  1  0.14677800  0.39736500  0.42454700  1
  C  1349  1  0.00506546  0.33199800  0.35913600  1
  C  1352  1  0.53166100  0.15063400  0.60942600  1
  C  1353  1  0.49803000  0.16568300  0.62553600  1
  C  1354  1  0.54737600  0.16500500  0.66924600  1
  C  1355  1  0.57773700  0.14480700  0.65665200  1
  C  1356  1  0.61228400  0.13278900  0.67491900  1
  C  1357  1  0.61830600  0.14187100  0.70375800  1
  C  1358  1  0.58984400  0.16420100  0.71384400  1
  C  1359  1  0.55441700  0.17518000  0.69718500  1
  C  1360  1  0.45502200  0.17288800  0.61376300  1
  C  1361  1  0.44473100  0.16605800  0.58554800  1
  C  1362  1  0.47798100  0.15374100  0.56730300  1
  C  1363  1  0.52085600  0.14560100  0.57986000  1
  C  1364  1  0.61734200  0.15540300  0.61268300  1
  C  1365  1  0.65223400  0.14017300  0.59781900  1
  C  1366  1  0.60553100  0.09530600  0.59870000  1
  C  1367  1  0.57447800  0.10720600  0.61892900  1
  C  1368  1  0.60036100  0.06708300  0.58886800  1
  C  1369  1  0.56649300  0.04951800  0.60035400  1
  C  1370  1  0.53770800  0.05900800  0.62278500  1
  C  1371  1  0.54155500  0.08812000  0.63141400  1
  C  1372  1  0.62583100  0.18522400  0.61753500  1
  C  1373  1  0.66828400  0.19851000  0.61016700  1
  C  1374  1  0.70298900  0.18158400  0.59769900  1
  C  1375  1  0.69447700  0.15313700  0.59066300  1
  C  1388  1  0.57519500  0.13946400  0.62437800  1
  C  1389  1  0.64584000  0.11072600  0.58763200  1
  C  1392  1  0.50608100  0.17587000  0.65481600  1
  C  1395  1  0.78745400  0.65175800  0.89910500  1
  C  1396  1  0.75269800  0.63665100  0.91427700  1
  C  1397  1  0.80104700  0.59259300  0.91729000  1
  C  1398  1  0.83274800  0.60388300  0.89714000  1
  C  1399  1  0.86711500  0.58459600  0.88657200  1
  C  1400  1  0.87123800  0.55600500  0.89668500  1
  C  1401  1  0.84137700  0.54720300  0.91882500  1
  C  1402  1  0.80646000  0.56497000  0.92870000  1
  C  1403  1  0.70931100  0.64886900  0.91964600  1
  C  1404  1  0.69971900  0.67666900  0.91104900  1
  C  1405  1  0.73399900  0.69410400  0.89869200  1
  C  1406  1  0.77726700  0.68103800  0.89213600  1
  C  1407  1  0.87308800  0.64769100  0.90650000  1
  C  1408  1  0.91169200  0.65871600  0.89142200  1
  C  1409  1  0.87208800  0.65234800  0.84439500  1
  C  1410  1  0.83391400  0.63852300  0.85745300  1
  C  1411  1  0.87507600  0.65541800  0.81453200  1
  C  1412  1  0.84105700  0.64420200  0.79696700  1
  C  1413  1  0.80269800  0.62970000  0.80847900  1
  C  1414  1  0.79924800  0.62737200  0.83873500  1
  C  1415  1  0.87801000  0.64551100  0.93694900  1
  C  1416  1  0.91994200  0.65221200  0.95123600  1
  C  1417  1  0.95764400  0.66154000  0.93483700  1
  C  1418  1  0.95308400  0.66569100  0.90551900  1
  C  1431  1  0.83149600  0.63586800  0.89003500  1
  C  1432  1  0.91198400  0.66310000  0.86036200  1
  C  1435  1  0.75973100  0.60804500  0.92654600  1
  C  1438  1  0.28739800  0.85577000  0.11438700  1
  C  1439  1  0.25290000  0.87103500  0.09915000  1
  C  1440  1  0.30216100  0.91467500  0.09574700  1
  C  1441  1  0.33360800  0.90331800  0.11601400  1
  C  1442  1  0.36808800  0.92250200  0.12661200  1
  C  1443  1  0.37262100  0.95104800  0.11641100  1
  C  1444  1  0.34295900  0.95990000  0.09417500  1
  C  1445  1  0.30797300  0.94222300  0.08423600  1
  C  1446  1  0.20925500  0.85910800  0.09393800  1
  C  1447  1  0.19918600  0.83141700  0.10269000  1
  C  1448  1  0.23325300  0.81376300  0.11496700  1
  C  1449  1  0.27674000  0.82657800  0.12145200  1
  C  1450  1  0.37303300  0.85892400  0.10715000  1
  C  1451  1  0.41044700  0.84668300  0.12244800  1
  C  1452  1  0.37114900  0.85461300  0.16931800  1
  C  1453  1  0.33374200  0.86901300  0.15603300  1
  C  1454  1  0.37398600  0.85191100  0.19922000  1
  C  1455  1  0.34050000  0.86397300  0.21660700  1
  C  1456  1  0.30267700  0.87883500  0.20487700  1
  C  1457  1  0.29942400  0.88086400  0.17458100  1
  C  1458  1  0.37876600  0.86116900  0.07674000  1
  C  1459  1  0.42030300  0.85312800  0.06266300  1
  C  1460  1  0.45660200  0.84216600  0.07930600  1
  C  1461  1  0.45129000  0.83820800  0.10858200  1
  C  1474  1  0.33168900  0.87140300  0.12340500  1
  C  1475  1  0.41024000  0.84257000  0.15353900  1
  C  1478  1  0.26052500  0.89947100  0.08662600  1
  C  1481  1  0.53676100  0.86628200  0.60399500  1
  C  1482  1  0.49976600  0.85279400  0.61859800  1
  C  1483  1  0.54681600  0.84769400  0.66316300  1
  C  1484  1  0.58075800  0.86660900  0.65225900  1
  C  1485  1  0.61469800  0.87668900  0.67205600  1
  C  1486  1  0.61639800  0.86717300  0.70092100  1
  C  1487  1  0.58472700  0.84586600  0.70939200  1
  C  1488  1  0.55022700  0.83647400  0.69099700  1
  C  1489  1  0.45631100  0.84941700  0.60563000  1
  C  1490  1  0.44883700  0.85826400  0.57756300  1
  C  1491  1  0.48548100  0.86879100  0.56090300  1
  C  1492  1  0.52895800  0.87308500  0.57447000  1
  C  1493  1  0.62198000  0.85800300  0.60794500  1
  C  1494  1  0.65763500  0.87331600  0.59384100  1
  C  1495  1  0.62004600  0.92028800  0.60394100  1
  C  1496  1  0.58316200  0.90695200  0.61876500  1
  C  1497  1  0.62402800  0.95022300  0.60257900  1
  C  1498  1  0.59211400  0.96751300  0.61630900  1
  C  1499  1  0.55411500  0.95573800  0.63095100  1
  C  1500  1  0.54979600  0.92545200  0.63171600  1
  C  1501  1  0.62907900  0.82773200  0.61108700  1
  C  1502  1  0.66985500  0.81361400  0.60147900  1
  C  1503  1  0.70393800  0.83045700  0.58817300  1
  C  1504  1  0.69746200  0.85953400  0.58366000  1
  C  1517  1  0.58062800  0.87430200  0.62046000  1
  C  1518  1  0.65711400  0.90442500  0.58976100  1
  C  1521  1  0.50488400  0.84017900  0.64725100  1
  C  1524  1  0.03681850  0.64150500  0.40823200  1
  C  1525  1  0.00080146  0.65577700  0.39341900  1
  C  1526  1  0.04872150  0.66015700  0.34916600  1
  C  1527  1  0.08158450  0.64059400  0.36020000  1
  C  1528  1  0.11533200  0.62999400  0.34052900  1
  C  1529  1  0.11781800  0.63956000  0.31169400  1
  C  1530  1  0.08733850  0.66149700  0.30315700  1
  C  1531  1  0.05302350  0.67141500  0.32139600  1
  C  1532  1  0.95731100  0.65997900  0.40606200  1
  C  1533  1  0.94885100  0.65114900  0.43400100  1
  C  1534  1  0.98448300  0.63970700  0.45092800  1
  C  1535  1  0.02804250  0.63468800  0.43767800  1
  C  1536  1  0.12219900  0.64915100  0.40469600  1
  C  1537  1  0.15760400  0.63372000  0.41891200  1
  C  1538  1  0.11960600  0.58691300  0.40875900  1
  C  1539  1  0.08285750  0.60036700  0.39390600  1
  C  1540  1  0.12347500  0.55697100  0.41002000  1
  C  1541  1  0.09158850  0.53979200  0.39615000  1
  C  1542  1  0.05360750  0.55166000  0.38156400  1
  C  1543  1  0.04939850  0.58196300  0.38091000  1
  C  1544  1  0.12963500  0.67938600  0.40154700  1
  C  1545  1  0.17048000  0.69335000  0.41124300  1
  C  1546  1  0.20435500  0.67638000  0.42459800  1
  C  1547  1  0.19756600  0.64733600  0.42910800  1
  C  1560  1  0.08077650  0.63302500  0.39205300  1
  C  1561  1  0.15675800  0.60262600  0.42300800  1
  C  1564  1  0.00701946  0.66845900  0.36488500  1
  C  1567  1  0.28315700  0.15388200  0.11715400  1
  C  1568  1  0.24465700  0.13901800  0.10566500  1
  C  1569  1  0.28677900  0.09240500  0.10625500  1
  C  1570  1  0.32491100  0.10476200  0.12071100  1
  C  1571  1  0.36020600  0.08553700  0.13018200  1
  C  1572  1  0.35726500  0.05550900  0.12573400  1
  C  1573  1  0.31914300  0.04480000  0.11042700  1
  C  1574  1  0.28469800  0.06288300  0.10060300  1
  C  1575  1  0.20208800  0.15268800  0.10107500  1
  C  1576  1  0.19642100  0.18147700  0.10752800  1
  C  1577  1  0.23391300  0.19808100  0.11690600  1
  C  1578  1  0.27688100  0.18401100  0.12183000  1
  C  1579  1  0.36871700  0.14797400  0.10936600  1
  C  1580  1  0.40476900  0.16210100  0.12433900  1
  C  1581  1  0.36592800  0.15525600  0.17144500  1
  C  1582  1  0.32866600  0.14036100  0.15862000  1
  C  1583  1  0.36967300  0.15804300  0.20129700  1
  C  1584  1  0.33721600  0.14553200  0.21909300  1
  C  1585  1  0.29873300  0.13097200  0.20786400  1
  C  1586  1  0.29462000  0.12885700  0.17763300  1
  C  1587  1  0.37647900  0.14325900  0.07933100  1
  C  1588  1  0.41811600  0.15153300  0.06517700  1
  C  1589  1  0.45263900  0.16455200  0.08190300  1
  C  1590  1  0.44563200  0.17058900  0.11061200  1
  C  1603  1  0.32642700  0.13707800  0.12603700  1
  C  1604  1  0.40379600  0.16795900  0.15515000  1
  C  1607  1  0.24574000  0.10862000  0.09788200  1
  C  1610  1  0.78370500  0.35328500  0.89525300  1
  C  1611  1  0.74528700  0.36809800  0.90691100  1
  C  1612  1  0.78749200  0.41467200  0.90650200  1
  C  1613  1  0.82557800  0.40236000  0.89196100  1
  C  1614  1  0.86094200  0.42158700  0.88260700  1
  C  1615  1  0.85810100  0.45158900  0.88722900  1
  C  1616  1  0.81997600  0.46224800  0.90257600  1
  C  1617  1  0.78550800  0.44415600  0.91233800  1
  C  1618  1  0.70273400  0.35441800  0.91153000  1
  C  1619  1  0.69703300  0.32565600  0.90497200  1
  C  1620  1  0.73443600  0.30911000  0.89535100  1
  C  1621  1  0.77738000  0.32319100  0.89042000  1
  C  1622  1  0.86939800  0.35894500  0.90265100  1
  C  1623  1  0.90493400  0.34470700  0.88731600  1
  C  1624  1  0.86536100  0.35203500  0.84052200  1
  C  1625  1  0.82862800  0.36714000  0.85368300  1
  C  1626  1  0.86859300  0.34943800  0.81062900  1
  C  1627  1  0.83616300  0.36236500  0.79311500  1
  C  1628  1  0.79819300  0.37719700  0.80466200  1
  C  1629  1  0.79455100  0.37906100  0.83494100  1
  C  1630  1  0.87794800  0.36354100  0.93263700  1
  C  1631  1  0.91979700  0.35504900  0.94646700  1
  C  1632  1  0.95379900  0.34207000  0.92927300  1
  C  1633  1  0.94604100  0.33607800  0.90063700  1
  C  1646  1  0.82691600  0.37010300  0.88632200  1
  C  1647  1  0.90320400  0.33891500  0.85650000  1
  C  1650  1  0.74643200  0.39845500  0.91483000  1
  C  1653  1  0.86426000  0.64591200  0.60854500  1
  C  1654  1  0.89876400  0.66135600  0.62359000  1
  C  1655  1  0.85066600  0.66393100  0.66783400  1
  C  1656  1  0.81914700  0.64369200  0.65651900  1
  C  1657  1  0.78576500  0.63231400  0.67601900  1
  C  1658  1  0.78263500  0.64152000  0.70496500  1
  C  1659  1  0.81217900  0.66378800  0.71389100  1
  C  1660  1  0.84589900  0.67464500  0.69579100  1
  C  1661  1  0.94207600  0.66688600  0.61133200  1
  C  1662  1  0.95184600  0.65815000  0.58358700  1
  C  1663  1  0.91773700  0.64561100  0.56614100  1
  C  1664  1  0.87454300  0.63891600  0.57926300  1
  C  1665  1  0.77867900  0.65316500  0.61252700  1
  C  1666  1  0.74111700  0.63798900  0.60030700  1
  C  1667  1  0.78039400  0.59102600  0.60769000  1
  C  1668  1  0.81814300  0.60416100  0.62186800  1
  C  1669  1  0.77696600  0.56112900  0.60532200  1
  C  1670  1  0.81000900  0.54364400  0.61769500  1
  C  1671  1  0.84825100  0.55520600  0.63227500  1
  C  1672  1  0.85226100  0.58549400  0.63377100  1
  C  1673  1  0.77293700  0.68356200  0.61507700  1
  C  1674  1  0.73128000  0.69772300  0.60736700  1
  C  1675  1  0.69480900  0.68114300  0.59653000  1
  C  1676  1  0.70011600  0.65191500  0.59223600  1
  C  1689  1  0.82030200  0.63676200  0.62447800  1
  C  1690  1  0.74130000  0.60694600  0.59583500  1
  C  1693  1  0.89150400  0.67369600  0.65216700  1
  C  1696  1  0.36498300  0.86069900  0.40356500  1
  C  1697  1  0.39869200  0.84512100  0.38798000  1
  C  1698  1  0.34918700  0.84302100  0.34434600  1
  C  1699  1  0.31861700  0.86358800  0.35606300  1
  C  1700  1  0.28524800  0.87552900  0.33688400  1
  C  1701  1  0.28119700  0.86658500  0.30788700  1
  C  1702  1  0.30968300  0.84390400  0.29864800  1
  C  1703  1  0.34332000  0.83243900  0.31642600  1
  C  1704  1  0.44245100  0.83952200  0.39952300  1
  C  1705  1  0.45333300  0.84816900  0.42712400  1
  C  1706  1  0.41998300  0.86046800  0.44532900  1
  C  1707  1  0.37644500  0.86749200  0.43274400  1
  C  1708  1  0.27924400  0.85370700  0.40031600  1
  C  1709  1  0.24185100  0.86879800  0.41284200  1
  C  1710  1  0.28115900  0.91576500  0.40570200  1
  C  1711  1  0.31868300  0.90272800  0.39119700  1
  C  1712  1  0.27778200  0.94563800  0.40832700  1
  C  1713  1  0.31058700  0.96320000  0.39583400  1
  C  1714  1  0.34864000  0.95174300  0.38099100  1
  C  1715  1  0.35262600  0.92147200  0.37922900  1
  C  1716  1  0.27342800  0.82333900  0.39757100  1
  C  1717  1  0.23181900  0.80916400  0.40531300  1
  C  1718  1  0.19544800  0.82567100  0.41638400  1
  C  1719  1  0.20090900  0.85484200  0.42097300  1
  C  1732  1  0.32065700  0.87016300  0.38818300  1
  C  1733  1  0.24217700  0.89978700  0.41761300  1
  C  1736  1  0.39016300  0.83277200  0.35953900  1
  C  1739  1  0.11857800  0.35735500  0.11274300  1
  C  1740  1  0.15524200  0.37218900  0.09907700  1
  C  1741  1  0.11588200  0.41937600  0.10443800  1
  C  1742  1  0.07854150  0.40676100  0.11942800  1
  C  1743  1  0.04424650  0.42590400  0.13040300  1
  C  1744  1  0.04786850  0.45606700  0.12737200  1
  C  1745  1  0.08599050  0.46713500  0.11233000  1
  C  1746  1  0.11902900  0.44915800  0.10064300  1
  C  1747  1  0.19640000  0.35833400  0.09137100  1
  C  1748  1  0.20289000  0.32958000  0.09748100  1
  C  1749  1  0.16765000  0.31297200  0.10988800  1
  C  1750  1  0.12585800  0.32728900  0.11757000  1
  C  1751  1  0.03313150  0.36542000  0.10601200  1
  C  1752  1  0.99377500  0.35481600  0.12065800  1
  C  1753  1  0.03493350  0.35534600  0.16758200  1
  C  1754  1  0.07375750  0.36924600  0.15541300  1
  C  1755  1  0.03194150  0.35019000  0.19715500  1
  C  1756  1  0.06606750  0.36008400  0.21542600  1
  C  1757  1  0.10490100  0.37481600  0.20489400  1
  C  1758  1  0.10877300  0.37870400  0.17483500  1
  C  1759  1  0.02781850  0.36975900  0.07579000  1
  C  1760  1  0.98491900  0.36555900  0.06144800  1
  C  1761  1  0.94648100  0.35732700  0.07780300  1
  C  1762  1  0.95123700  0.35100200  0.10669500  1
  C  1775  1  0.07613350  0.37422200  0.12308400  1
  C  1776  1  0.99396100  0.34729200  0.15112300  1
  C  1779  1  0.15435400  0.40291100  0.09266600  1
  C  1782  1  0.61884400  0.15003200  0.89954700  1
  C  1783  1  0.65541500  0.13510200  0.91319700  1
  C  1784  1  0.61545200  0.08808700  0.90815100  1
  C  1785  1  0.57820800  0.10078300  0.89313100  1
  C  1786  1  0.54372900  0.08172700  0.88223400  1
  C  1787  1  0.54714300  0.05155100  0.88529900  1
  C  1788  1  0.58514500  0.04042100  0.90041500  1
  C  1789  1  0.61833700  0.05831300  0.91205200  1
  C  1790  1  0.69675100  0.14881500  0.92078700  1
  C  1791  1  0.70349900  0.17752200  0.91457600  1
  C  1792  1  0.66831200  0.19424400  0.90226200  1
  C  1793  1  0.62637800  0.18006000  0.89465000  1
  C  1794  1  0.53329200  0.14259400  0.90612300  1
  C  1795  1  0.49476000  0.15411200  0.89131200  1
  C  1796  1  0.53606700  0.15241700  0.84447700  1
  C  1797  1  0.57427500  0.13805000  0.85684700  1
  C  1798  1  0.53336700  0.15733900  0.81485400  1
  C  1799  1  0.56716200  0.14677000  0.79673200  1
  C  1800  1  0.60549500  0.13167900  0.80745800  1
  C  1801  1  0.60912000  0.12804100  0.83756900  1
  C  1802  1  0.52725100  0.13815900  0.93630000  1
  C  1803  1  0.48438500  0.14316000  0.95044100  1
  C  1804  1  0.44690800  0.15274500  0.93394000  1
  C  1805  1  0.45239800  0.15903900  0.90511000  1
  C  1818  1  0.57625000  0.13330400  0.88923600  1
  C  1819  1  0.49553400  0.16147000  0.86081400  1
  C  1822  1  0.65421200  0.10441800  0.91974000  1
  C  1825  1  0.21900200  0.22310500  0.40512300  1
  C  1826  1  0.21449000  0.23757200  0.37874500  1
  C  1827  1  0.19532000  0.26557300  0.37702000  1
  C  1828  1  0.17830400  0.27925900  0.40205000  1
  C  1829  1  0.18229000  0.26478400  0.42865300  1
  C  1831  1  0.20292100  0.23747800  0.42980100  1
  C  1839  1  0.71789400  0.28477400  0.60776700  1
  C  1840  1  0.71420400  0.27014500  0.63410900  1
  C  1841  1  0.69511700  0.24212700  0.63588400  1
  C  1842  1  0.67744300  0.22860700  0.61094800  1
  C  1843  1  0.68063000  0.24319800  0.58437600  1
  C  1845  1  0.70116700  0.27052600  0.58317900  1
  C  1853  1  0.47040000  0.84994900  0.97662600  1
  C  1854  1  0.46432800  0.87650500  0.99055100  1
  C  1855  1  0.44473800  0.87839700  0.01841500  1
  C  1856  1  0.42861900  0.85332000  0.03244800  1
  C  1857  1  0.43401500  0.82655000  0.01847100  1
  C  1859  1  0.45516000  0.82525900  0.99131000  1
  C  1867  1  0.96748300  0.65799100  0.03761000  1
  C  1868  1  0.96792700  0.63155300  0.02300600  1
  C  1869  1  0.94916000  0.62859900  0.99503500  1
  C  1870  1  0.92735300  0.65224200  0.98145300  1
  C  1871  1  0.92667900  0.67900100  0.99597700  1
  C  1873  1  0.94703100  0.68142300  0.02319800  1
  C  1881  1  0.68043200  0.78365700  0.60389400  1
  C  1882  1  0.68657300  0.76983600  0.63049500  1
  C  1883  1  0.70641400  0.74203600  0.63251900  1
  C  1884  1  0.72298300  0.72796000  0.60757900  1
  C  1885  1  0.71751600  0.74185000  0.58075100  1
  C  1887  1  0.69598700  0.76889700  0.57930600  1
  C  1895  1  0.18127900  0.72326800  0.40883200  1
  C  1896  1  0.18686700  0.73717700  0.38222900  1
  C  1897  1  0.20665600  0.76498200  0.38014900  1
  C  1898  1  0.22363800  0.77892700  0.40504400  1
  C  1899  1  0.21873300  0.76499400  0.43187800  1
  C  1901  1  0.19725700  0.73794200  0.43336800  1
  C  1909  1  0.42958800  0.14849400  0.03533800  1
  C  1910  1  0.43582700  0.12161000  0.02209600  1
  C  1911  1  0.45720300  0.11890400  0.99476900  1
  C  1912  1  0.47576700  0.14334000  0.98070800  1
  C  1913  1  0.47014300  0.17044000  0.99402700  1
  C  1915  1  0.44671200  0.17261000  0.02042700  1
  C  1923  1  0.93221900  0.35838700  0.97621600  1
  C  1924  1  0.93351600  0.38518300  0.99012700  1
  C  1925  1  0.95426700  0.38865900  0.01754000  1
  C  1926  1  0.97691700  0.36531300  0.03118600  1
  C  1927  1  0.97584000  0.33820500  0.01727300  1
  C  1929  1  0.95318000  0.33520800  0.99080000  1
  C  1937  1  0.72171200  0.72382200  0.89578100  1
  C  1938  1  0.71670100  0.73772900  0.86914600  1
  C  1939  1  0.69550600  0.76514800  0.86677300  1
  C  1940  1  0.67603800  0.77866600  0.89123000  1
  C  1941  1  0.68054900  0.76469700  0.91809400  1
  C  1943  1  0.70364100  0.73816700  0.91997500  1
  C  1951  1  0.22066600  0.78407200  0.11775500  1
  C  1952  1  0.21651500  0.76986100  0.14429300  1
  C  1953  1  0.19544800  0.74239900  0.14662200  1
  C  1954  1  0.17536000  0.72914900  0.12222200  1
  C  1955  1  0.17901600  0.74335900  0.09544900  1
  C  1957  1  0.20193700  0.76994500  0.09361800  1
  C  1965  1  0.96889700  0.35685300  0.47665900  1
  C  1966  1  0.96469800  0.38327400  0.49108100  1
  C  1967  1  0.94560400  0.38509300  0.51909300  1
  C  1968  1  0.92850200  0.36011000  0.53282000  1
  C  1969  1  0.93223000  0.33346600  0.51840400  1
  C  1971  1  0.95269500  0.33222900  0.49105300  1
  C  1979  1  0.46528700  0.15104800  0.53759800  1
  C  1980  1  0.46912000  0.12529300  0.52199900  1
  C  1981  1  0.45099600  0.12254100  0.49383300  1
  C  1982  1  0.42675500  0.14566300  0.48097600  1
  C  1983  1  0.42286900  0.17178400  0.49641900  1
  C  1985  1  0.44246400  0.17404200  0.52385600  1
  C  1993  1  0.17849700  0.28301700  0.11271000  1
  C  1994  1  0.18577000  0.26966800  0.13944200  1
  C  1995  1  0.20717500  0.24230600  0.14175200  1
  C  1996  1  0.22499900  0.22833600  0.11706100  1
  C  1997  1  0.21843100  0.24181500  0.09009800  1
  C  1999  1  0.19495200  0.26824700  0.08832600  1
  C  2007  1  0.67928300  0.22418000  0.89951100  1
  C  2008  1  0.68604800  0.23766800  0.87279200  1
  C  2009  1  0.70739200  0.26504300  0.87045600  1
  C  2010  1  0.72559800  0.27885100  0.89511800  1
  C  2011  1  0.71956200  0.26529300  0.92207600  1
  C  2013  1  0.69616400  0.23884200  0.92385500  1
  C  2021  1  0.93002200  0.64293300  0.53634400  1
  C  2022  1  0.93460900  0.61646000  0.52203800  1
  C  2023  1  0.95539900  0.61437600  0.49445200  1
  C  2024  1  0.97461600  0.63899500  0.48107700  1
  C  2025  1  0.97047200  0.66568200  0.49540500  1
  C  2027  1  0.94786000  0.66726600  0.52211700  1
  C  2035  1  0.43376700  0.86358800  0.47494600  1
  C  2036  1  0.43131500  0.88951000  0.49039400  1
  C  2037  1  0.45126900  0.89248300  0.51812500  1
  C  2038  1  0.47649800  0.86956900  0.53071700  1
  C  2039  1  0.47894400  0.84328700  0.51538500  1
  C  2041  1  0.45727200  0.84073400  0.48855100  1
  C  2049  1  0.25940700  0.12605000  0.28968200  1
  C  2050  1  0.27967700  0.10160300  0.27724400  1
  C  2051  1  0.28329800  0.09872400  0.24711800  1
  C  2052  1  0.26678400  0.12084800  0.22890200  1
  C  2053  1  0.23742800  0.14195600  0.24133200  1
  C  2055  1  0.23272400  0.14364600  0.27142300  1
  C  2063  1  0.75833500  0.38237000  0.72319800  1
  C  2064  1  0.77932200  0.40667800  0.73548400  1
  C  2065  1  0.78319200  0.40962700  0.76559500  1
  C  2066  1  0.76605000  0.38776700  0.78387700  1
  C  2067  1  0.73608600  0.36687700  0.77169500  1
  C  2069  1  0.73124300  0.36515500  0.74162300  1
  C  2077  1  0.50564800  0.96991400  0.88085500  1
  C  2078  1  0.52663700  0.98202100  0.85642600  1
  C  2079  1  0.53147900  0.01209200  0.85361500  1
  C  2080  1  0.51483700  0.03055500  0.87550900  1
  C  2081  1  0.48504700  0.01857000  0.89657900  1
  C  2083  1  0.47971600  0.98855700  0.89843400  1
  C  2091  1  0.00567446  0.53769100  0.13226800  1
  C  2092  1  0.02689350  0.52564400  0.15662400  1
  C  2093  1  0.03215550  0.49559100  0.15926600  1
  C  2094  1  0.01583650  0.47712100  0.13729500  1
  C  2095  1  0.98591000  0.48908400  0.11623800  1
  C  2097  1  0.97982300  0.51906900  0.11462900  1
  C  2105  1  0.14317400  0.37906500  0.28717000  1
  C  2106  1  0.12273200  0.40349500  0.27476900  1
  C  2107  1  0.11936900  0.40658400  0.24465400  1
  C  2108  1  0.13631700  0.38464000  0.22640400  1
  C  2109  1  0.16553800  0.36344900  0.23875800  1
  C  2111  1  0.17038000  0.36180700  0.26884300  1
  C  2119  1  0.64445600  0.12722300  0.72532500  1
  C  2120  1  0.62325100  0.10295500  0.73752800  1
  C  2121  1  0.61952000  0.09988900  0.76763200  1
  C  2122  1  0.63688100  0.12157600  0.78607400  1
  C  2123  1  0.66700500  0.14235800  0.77384800  1
  C  2125  1  0.67208200  0.14407500  0.74378800  1
  C  2133  1  0.89711000  0.53364500  0.88320600  1
  C  2134  1  0.87669200  0.52133700  0.85869300  1
  C  2135  1  0.87290900  0.49122400  0.85570900  1
  C  2136  1  0.88999100  0.47292100  0.87758200  1
  C  2137  1  0.91911700  0.48514700  0.89885200  1
  C  2139  1  0.92365300  0.51521300  0.90071200  1
  C  2147  1  0.39807300  0.97349200  0.13012500  1
  C  2148  1  0.37685100  0.98559000  0.15446700  1
  C  2149  1  0.37221500  0.01566700  0.15732500  1
  C  2150  1  0.38895300  0.03416600  0.13549900  1
  C  2151  1  0.41877600  0.02210300  0.11446000  1
  C  2153  1  0.42460500  0.99209700  0.11283100  1
  C  2161  1  0.64088600  0.88104500  0.72366800  1
  C  2162  1  0.62002800  0.90569900  0.73533300  1
  C  2163  1  0.61467100  0.90896700  0.76532200  1
  C  2164  1  0.63006500  0.88700700  0.78412700  1
  C  2165  1  0.66001200  0.86568500  0.77263800  1
  C  2167  1  0.66628100  0.86355900  0.74269800  1
  C  2175  1  0.14196400  0.62534500  0.28898300  1
  C  2176  1  0.12052800  0.60081300  0.27741300  1
  C  2177  1  0.11517700  0.59747000  0.24742800  1
  C  2178  1  0.13123700  0.61920400  0.22860100  1
  C  2179  1  0.16167300  0.64031900  0.23992300  1
  C  2181  1  0.16781100  0.64250300  0.26986100  1
  C  2189  1  0.75841000  0.62697600  0.72741100  1
  C  2190  1  0.78021900  0.60237400  0.73859600  1
  C  2191  1  0.78605800  0.59874600  0.76852100  1
  C  2192  1  0.76977800  0.62010600  0.78775400  1
  C  2193  1  0.73906100  0.64118200  0.77675500  1
  C  2195  1  0.73236200  0.64360800  0.74688800  1
  C  2203  1  0.25734000  0.88178300  0.28565700  1
  C  2204  1  0.28013800  0.90618700  0.27486000  1
  C  2205  1  0.28638600  0.90995700  0.24498700  1
  C  2206  1  0.26996200  0.88887500  0.22550100  1
  C  2207  1  0.23841200  0.86807500  0.23623800  1
  C  2209  1  0.23079400  0.86565800  0.26603900  1
  C  2217  1  0.01235650  0.47053700  0.37515600  1
  C  2218  1  0.03486150  0.48279000  0.35134700  1
  C  2219  1  0.03933550  0.51289600  0.34857200  1
  C  2220  1  0.02165250  0.53110300  0.37035100  1
  C  2221  1  0.99056600  0.51901800  0.39066100  1
  C  2223  1  0.98465800  0.48898200  0.39194200  1
  C  2231  1  0.51281000  0.03694900  0.63755500  1
  C  2232  1  0.53529200  0.02462700  0.66135000  1
  C  2233  1  0.54001200  0.99452500  0.66395800  1
  C  2234  1  0.52226100  0.97632600  0.64220000  1
  C  2235  1  0.49103400  0.98840300  0.62198400  1
  C  2237  1  0.48519800  0.01842900  0.62075900  1
  C  2245  1  0.38935500  0.03319600  0.37623000  1
  C  2246  1  0.36705600  0.02128700  0.35213500  1
  C  2247  1  0.36265800  0.99120500  0.34895600  1
  C  2248  1  0.38056100  0.97259900  0.37036500  1
  C  2249  1  0.41171900  0.98447200  0.39071600  1
  C  2251  1  0.41728000  0.01448000  0.39254800  1
  C  2259  1  0.89008800  0.47401700  0.63693300  1
  C  2260  1  0.86763700  0.48572000  0.66105900  1
  C  2261  1  0.86287800  0.51577300  0.66429000  1
  C  2262  1  0.88043400  0.53443400  0.64283000  1
  C  2263  1  0.91150900  0.52278000  0.62229900  1
  C  2265  1  0.91790600  0.49280800  0.62061900  1
  N  697  1  0.74542400  0.28035400  0.35067500  1
  N  698  1  0.71856200  0.27791500  0.45398000  1
  N  711  1  0.24599400  0.22717900  0.66216200  1
  N  712  1  0.21634200  0.23015900  0.55914800  1
  N  725  1  0.99361700  0.90496600  0.03269900  1
  N  726  1  0.97117700  0.80122700  0.03200500  1
  N  739  1  0.50430900  0.60223900  0.98020500  1
  N  740  1  0.45896500  0.70436200  0.98542500  1
  N  753  1  0.26324600  0.72782500  0.65913100  1
  N  754  1  0.28647300  0.72830600  0.55549700  1
  N  767  1  0.76299500  0.77929400  0.35356700  1
  N  768  1  0.78809300  0.77848000  0.45706400  1
  N  781  1  0.01378500  0.09202700  0.98108400  1
  N  782  1  0.04039200  0.19530200  0.98036600  1
  N  795  1  0.50628700  0.41537300  0.03174700  1
  N  796  1  0.54957400  0.31289300  0.02784200  1
  N  809  1  0.24566200  0.77944600  0.84018900  1
  N  810  1  0.21525400  0.77775500  0.94304700  1
  N  823  1  0.74640500  0.72780400  0.17307300  1
  N  824  1  0.71316300  0.73049700  0.07055500  1
  N  837  1  0.49587000  0.41147600  0.53381800  1
  N  838  1  0.46847800  0.30821000  0.53164800  1
  N  851  1  0.00916100  0.09689000  0.47809900  1
  N  852  1  0.95296800  0.19671000  0.48658000  1
  N  865  1  0.76460700  0.22846600  0.16850100  1
  N  866  1  0.78802400  0.22834200  0.06496000  1
  N  879  1  0.26433900  0.27903300  0.84375400  1
  N  880  1  0.28952200  0.27867800  0.94716600  1
  N  893  1  0.51081600  0.58796500  0.47979700  1
  N  894  1  0.54149900  0.69075900  0.48253300  1
  N  907  1  0.99991400  0.91826600  0.53374200  1
  N  908  1  0.05509700  0.81834600  0.52484600  1
  N  921  1  0.86334600  0.07674500  0.23485700  1
  N  922  1  0.77077700  0.16499700  0.22581600  1
  N  935  1  0.36389600  0.43136400  0.77772100  1
  N  936  1  0.26896700  0.34407500  0.78732900  1
  N  949  1  0.11210000  0.02391900  0.83165400  1
  N  950  1  0.01873300  0.03439400  0.91950800  1
  N  963  1  0.61312400  0.48378300  0.18106100  1
  N  964  1  0.51945500  0.47320300  0.09338300  1
  N  977  1  0.64528600  0.42863600  0.23241200  1
  N  978  1  0.73854300  0.34066100  0.22311800  1
  N  991  1  0.14467600  0.07810100  0.77969400  1
  N  992  1  0.24049800  0.16489900  0.78959100  1
  N  1005  1  0.39889500  0.47912400  0.83354100  1
  N  1006  1  0.49197000  0.46940900  0.92161800  1
  N  1019  1  0.89738200  0.02753400  0.17922600  1
  N  1020  1  0.99165300  0.03800800  0.09181300  1
  N  1033  1  0.13942800  0.93095400  0.77672300  1
  N  1034  1  0.23136400  0.84272000  0.78879500  1
  N  1047  1  0.63942900  0.57571500  0.23606700  1
  N  1048  1  0.73358700  0.66305300  0.22369300  1
  N  1061  1  0.36787900  0.57685600  0.77941400  1
  N  1062  1  0.27273200  0.66352800  0.79340800  1
  N  1075  1  0.86907900  0.93150700  0.23434200  1
  N  1076  1  0.77151300  0.84612900  0.21930500  1
  N  1089  1  0.62145000  0.52505000  0.32753100  1
  N  1090  1  0.52295900  0.53461500  0.41333200  1
  N  1103  1  0.12231400  0.98237800  0.68490700  1
  N  1104  1  0.02322200  0.97282900  0.59936900  1
  N  1117  1  0.88651100  0.97940200  0.32763900  1
  N  1118  1  0.98551800  0.96851200  0.41300200  1
  N  1131  1  0.38670100  0.52745900  0.68565300  1
  N  1132  1  0.48499500  0.53891200  0.60002200  1
  N  1833  1  0.19250000  0.28035400  0.35067500  1
  N  1834  1  0.16563800  0.27791500  0.45398000  1
  N  1847  1  0.69307000  0.22717900  0.66216200  1
  N  1848  1  0.66341800  0.23015900  0.55914800  1
  N  1861  1  0.44069300  0.90496600  0.03269900  1
  N  1862  1  0.41825300  0.80122700  0.03200500  1
  N  1875  1  0.95138500  0.60223900  0.98020500  1
  N  1876  1  0.90604100  0.70436200  0.98542500  1
  N  1889  1  0.71032200  0.72782500  0.65913100  1
  N  1890  1  0.73354900  0.72830600  0.55549700  1
  N  1903  1  0.21007100  0.77929400  0.35356700  1
  N  1904  1  0.23516900  0.77848000  0.45706400  1
  N  1917  1  0.46086100  0.09202700  0.98108400  1
  N  1918  1  0.48746800  0.19530200  0.98036600  1
  N  1931  1  0.95336300  0.41537300  0.03174700  1
  N  1932  1  0.99665000  0.31289300  0.02784200  1
  N  1945  1  0.69273800  0.77944600  0.84018900  1
  N  1946  1  0.66233000  0.77775500  0.94304700  1
  N  1959  1  0.19348100  0.72780400  0.17307300  1
  N  1960  1  0.16023900  0.73049700  0.07055500  1
  N  1973  1  0.94294600  0.41147600  0.53381800  1
  N  1974  1  0.91555400  0.30821000  0.53164800  1
  N  1987  1  0.45623700  0.09689000  0.47809900  1
  N  1988  1  0.40004400  0.19671000  0.48658000  1
  N  2001  1  0.21168300  0.22846600  0.16850100  1
  N  2002  1  0.23510000  0.22834200  0.06496000  1
  N  2015  1  0.71141500  0.27903300  0.84375400  1
  N  2016  1  0.73659800  0.27867800  0.94716600  1
  N  2029  1  0.95789200  0.58796500  0.47979700  1
  N  2030  1  0.98857500  0.69075900  0.48253300  1
  N  2043  1  0.44699000  0.91826600  0.53374200  1
  N  2044  1  0.50217300  0.81834600  0.52484600  1
  N  2057  1  0.31042200  0.07674500  0.23485700  1
  N  2058  1  0.21785300  0.16499700  0.22581600  1
  N  2071  1  0.81097200  0.43136400  0.77772100  1
  N  2072  1  0.71604300  0.34407500  0.78732900  1
  N  2085  1  0.55917600  0.02391900  0.83165400  1
  N  2086  1  0.46580900  0.03439400  0.91950800  1
  N  2099  1  0.06020050  0.48378300  0.18106100  1
  N  2100  1  0.96653100  0.47320300  0.09338300  1
  N  2113  1  0.09236250  0.42863600  0.23241200  1
  N  2114  1  0.18561900  0.34066100  0.22311800  1
  N  2127  1  0.59175200  0.07810100  0.77969400  1
  N  2128  1  0.68757400  0.16489900  0.78959100  1
  N  2141  1  0.84597100  0.47912400  0.83354100  1
  N  2142  1  0.93904600  0.46940900  0.92161800  1
  N  2155  1  0.34445800  0.02753400  0.17922600  1
  N  2156  1  0.43872900  0.03800800  0.09181300  1
  N  2169  1  0.58650400  0.93095400  0.77672300  1
  N  2170  1  0.67844000  0.84272000  0.78879500  1
  N  2183  1  0.08650550  0.57571500  0.23606700  1
  N  2184  1  0.18066300  0.66305300  0.22369300  1
  N  2197  1  0.81495500  0.57685600  0.77941400  1
  N  2198  1  0.71980800  0.66352800  0.79340800  1
  N  2211  1  0.31615500  0.93150700  0.23434200  1
  N  2212  1  0.21858900  0.84612900  0.21930500  1
  N  2225  1  0.06852650  0.52505000  0.32753100  1
  N  2226  1  0.97003500  0.53461500  0.41333200  1
  N  2239  1  0.56939000  0.98237800  0.68490700  1
  N  2240  1  0.47029800  0.97282900  0.59936900  1
  N  2253  1  0.33358700  0.97940200  0.32763900  1
  N  2254  1  0.43259400  0.96851200  0.41300200  1
  N  2267  1  0.83377700  0.52745900  0.68565300  1
  N  2268  1  0.93207100  0.53891200  0.60002200  1
  O  699  1  0.78452600  0.28412400  0.33989600  1
  O  700  1  0.68709800  0.26341200  0.46532200  1
  O  701  1  0.72079000  0.26712300  0.33301500  1
  O  702  1  0.75005000  0.28167000  0.47200100  1
  O  713  1  0.28540100  0.22337000  0.67248800  1
  O  714  1  0.18457900  0.24468100  0.54815700  1
  O  715  1  0.22184300  0.24028400  0.68016800  1
  O  716  1  0.24741400  0.22651500  0.54082500  1
  O  727  1  0.03222900  0.91641000  0.03645900  1
  O  728  1  0.94038800  0.78913300  0.01755000  1
  O  729  1  0.96844000  0.92200800  0.01906200  1
  O  730  1  0.00335300  0.78378100  0.03620300  1
  O  741  1  0.54519300  0.59446100  0.97633400  1
  O  742  1  0.41719100  0.70081400  0.97956000  1
  O  743  1  0.48329300  0.58282900  0.99339800  1
  O  744  1  0.47934500  0.71467300  0.96414800  1
  O  755  1  0.22454100  0.72392900  0.67041000  1
  O  756  1  0.31711100  0.74287600  0.54338600  1
  O  757  1  0.28807000  0.74161200  0.67625400  1
  O  758  1  0.25442400  0.72386000  0.53802300  1
  O  769  1  0.72408500  0.78321900  0.34257600  1
  O  770  1  0.81894100  0.76389100  0.46893800  1
  O  771  1  0.78751800  0.76557800  0.33622300  1
  O  772  1  0.75633000  0.78286400  0.47475200  1
  O  783  1  0.97484000  0.08140000  0.97636300  1
  O  784  1  0.07021300  0.20756500  0.99545000  1
  O  785  1  0.03673900  0.07472100  0.99586300  1
  O  786  1  0.00895100  0.21285000  0.97469800  1
  O  797  1  0.46579200  0.42329400  0.03673000  1
  O  798  1  0.59185000  0.31612700  0.03232500  1
  O  799  1  0.52611300  0.43439400  0.01733100  1
  O  800  1  0.53066600  0.30322900  0.04993500  1
  O  811  1  0.28494500  0.78444100  0.83019000  1
  O  812  1  0.18490300  0.76244900  0.95450700  1
  O  813  1  0.22335600  0.76503900  0.82225100  1
  O  814  1  0.24604300  0.78296200  0.96117500  1
  O  825  1  0.78597800  0.72273400  0.18258000  1
  O  826  1  0.68246900  0.74585700  0.05952700  1
  O  827  1  0.72458000  0.74198600  0.19141200  1
  O  828  1  0.74352900  0.72551700  0.05208900  1
  O  839  1  0.53503700  0.42218500  0.53752200  1
  O  840  1  0.43689700  0.29686600  0.51724200  1
  O  841  1  0.47129800  0.42914700  0.52055900  1
  O  842  1  0.49992800  0.29016100  0.53539100  1
  O  853  1  0.05083800  0.09099700  0.47417600  1
  O  854  1  0.91153100  0.19200100  0.48062800  1
  O  855  1  0.99020600  0.07619500  0.49052200  1
  O  856  1  0.97244000  0.20831800  0.46564200  1
  O  867  1  0.72601100  0.22368200  0.17958300  1
  O  868  1  0.81750000  0.24351800  0.05248800  1
  O  869  1  0.78815100  0.24310400  0.18561600  1
  O  870  1  0.75612000  0.22277000  0.04770600  1
  O  881  1  0.22554500  0.28387200  0.83296900  1
  O  882  1  0.31920700  0.26347000  0.95940100  1
  O  883  1  0.28758300  0.26449600  0.82639800  1
  O  884  1  0.25787300  0.28415600  0.96463000  1
  O  895  1  0.47145600  0.57801900  0.47494500  1
  O  896  1  0.57218200  0.70196400  0.49777100  1
  O  897  1  0.53342800  0.56984800  0.49378000  1
  O  898  1  0.51070900  0.70901100  0.47778100  1
  O  909  1  0.95852500  0.92405000  0.53881900  1
  O  910  1  0.09694900  0.82292000  0.52967200  1
  O  911  1  0.01767200  0.93889200  0.52055200  1
  O  912  1  0.03695600  0.80688900  0.54632300  1
  O  923  1  0.90447700  0.07765000  0.24312700  1
  O  924  1  0.74788300  0.15633200  0.20476400  1
  O  925  1  0.84701000  0.05264700  0.24094000  1
  O  926  1  0.79993300  0.18294500  0.21741300  1
  O  937  1  0.40495200  0.42998300  0.76937200  1
  O  938  1  0.24654700  0.35301400  0.80846000  1
  O  939  1  0.34819700  0.45559800  0.77152800  1
  O  940  1  0.29771600  0.32583300  0.79564600  1
  O  951  1  0.15295600  0.01516500  0.83274400  1
  O  952  1  0.99651600  0.05566500  0.91069700  1
  O  953  1  0.09581300  0.01790100  0.80752600  1
  O  954  1  0.04812000  0.04256000  0.93741100  1
  O  965  1  0.65384900  0.49275900  0.17988600  1
  O  966  1  0.49719400  0.45198600  0.10228200  1
  O  967  1  0.59697800  0.48957400  0.20528100  1
  O  968  1  0.54866600  0.46495200  0.07540300  1
  O  979  1  0.60405900  0.42767600  0.24047700  1
  O  980  1  0.76200700  0.34973000  0.20248500  1
  O  981  1  0.66155300  0.45268500  0.23873900  1
  O  982  1  0.70976500  0.32279800  0.21404000  1
  O  993  1  0.10356300  0.07953300  0.77147600  1
  O  994  1  0.26342700  0.15555100  0.81032800  1
  O  995  1  0.16032500  0.05389600  0.77335600  1
  O  996  1  0.21213400  0.18308100  0.79854500  1
  O  1007  1  0.35772700  0.48731200  0.83444100  1
  O  1008  1  0.51537600  0.44877100  0.91250400  1
  O  1009  1  0.41535800  0.48553400  0.80956500  1
  O  1010  1  0.46309600  0.46028600  0.93940000  1
  O  1021  1  0.85646400  0.01890700  0.17802000  1
  O  1022  1  0.01443900  0.05886300  0.10104100  1
  O  1023  1  0.91348700  0.02138900  0.20336500  1
  O  1024  1  0.96286900  0.04682400  0.07382300  1
  O  1035  1  0.09891300  0.92994100  0.76736500  1
  O  1036  1  0.25322900  0.85146900  0.81023000  1
  O  1037  1  0.15584000  0.95516300  0.77120200  1
  O  1038  1  0.20151700  0.82499400  0.79671300  1
  O  1049  1  0.59893100  0.57712100  0.24540200  1
  O  1050  1  0.75509500  0.65403300  0.20223300  1
  O  1051  1  0.65525900  0.55137700  0.24168500  1
  O  1052  1  0.70420100  0.68108300  0.21579100  1
  O  1063  1  0.40827700  0.57849400  0.76995100  1
  O  1064  1  0.25092500  0.65392600  0.81449700  1
  O  1065  1  0.35211400  0.55257000  0.77349500  1
  O  1066  1  0.30187200  0.68141200  0.80199900  1
  O  1077  1  0.90928100  0.92932900  0.24401400  1
  O  1078  1  0.75032800  0.85616300  0.19817300  1
  O  1079  1  0.85401600  0.95595800  0.24028200  1
  O  1080  1  0.80008500  0.82786700  0.21077500  1
  O  1091  1  0.66219300  0.51623900  0.32943300  1
  O  1092  1  0.50116600  0.55595800  0.40429900  1
  O  1093  1  0.60683100  0.51972800  0.30283800  1
  O  1094  1  0.55120700  0.54257100  0.43203000  1
  O  1105  1  0.16298600  0.99130400  0.68295100  1
  O  1106  1  0.00132800  0.95156300  0.60849200  1
  O  1107  1  0.10778900  0.98757200  0.70964900  1
  O  1108  1  0.05130100  0.96473300  0.58062600  1
  O  1119  1  0.84571400  0.98809100  0.32964800  1
  O  1120  1  0.00770600  0.94758600  0.40338700  1
  O  1121  1  0.90118900  0.98518600  0.30306200  1
  O  1122  1  0.95752400  0.95981400  0.43153200  1
  O  1133  1  0.34601700  0.51854800  0.68375000  1
  O  1134  1  0.50699500  0.55991500  0.60963700  1
  O  1135  1  0.40160500  0.52175800  0.71019500  1
  O  1136  1  0.45678800  0.54751300  0.58157400  1
  O  1835  1  0.23160200  0.28412400  0.33989600  1
  O  1836  1  0.13417400  0.26341200  0.46532200  1
  O  1837  1  0.16786600  0.26712300  0.33301500  1
  O  1838  1  0.19712600  0.28167000  0.47200100  1
  O  1849  1  0.73247700  0.22337000  0.67248800  1
  O  1850  1  0.63165500  0.24468100  0.54815700  1
  O  1851  1  0.66891900  0.24028400  0.68016800  1
  O  1852  1  0.69449000  0.22651500  0.54082500  1
  O  1863  1  0.47930500  0.91641000  0.03645900  1
  O  1864  1  0.38746400  0.78913300  0.01755000  1
  O  1865  1  0.41551600  0.92200800  0.01906200  1
  O  1866  1  0.45042900  0.78378100  0.03620300  1
  O  1877  1  0.99226900  0.59446100  0.97633400  1
  O  1878  1  0.86426700  0.70081400  0.97956000  1
  O  1879  1  0.93036900  0.58282900  0.99339800  1
  O  1880  1  0.92642100  0.71467300  0.96414800  1
  O  1891  1  0.67161700  0.72392900  0.67041000  1
  O  1892  1  0.76418700  0.74287600  0.54338600  1
  O  1893  1  0.73514600  0.74161200  0.67625400  1
  O  1894  1  0.70150000  0.72386000  0.53802300  1
  O  1905  1  0.17116100  0.78321900  0.34257600  1
  O  1906  1  0.26601700  0.76389100  0.46893800  1
  O  1907  1  0.23459400  0.76557800  0.33622300  1
  O  1908  1  0.20340600  0.78286400  0.47475200  1
  O  1919  1  0.42191600  0.08140000  0.97636300  1
  O  1920  1  0.51728900  0.20756500  0.99545000  1
  O  1921  1  0.48381500  0.07472100  0.99586300  1
  O  1922  1  0.45602700  0.21285000  0.97469800  1
  O  1933  1  0.91286800  0.42329400  0.03673000  1
  O  1934  1  0.03892650  0.31612700  0.03232500  1
  O  1935  1  0.97318900  0.43439400  0.01733100  1
  O  1936  1  0.97774200  0.30322900  0.04993500  1
  O  1947  1  0.73202100  0.78444100  0.83019000  1
  O  1948  1  0.63197900  0.76244900  0.95450700  1
  O  1949  1  0.67043200  0.76503900  0.82225100  1
  O  1950  1  0.69311900  0.78296200  0.96117500  1
  O  1961  1  0.23305400  0.72273400  0.18258000  1
  O  1962  1  0.12954500  0.74585700  0.05952700  1
  O  1963  1  0.17165600  0.74198600  0.19141200  1
  O  1964  1  0.19060500  0.72551700  0.05208900  1
  O  1975  1  0.98211300  0.42218500  0.53752200  1
  O  1976  1  0.88397300  0.29686600  0.51724200  1
  O  1977  1  0.91837400  0.42914700  0.52055900  1
  O  1978  1  0.94700400  0.29016100  0.53539100  1
  O  1989  1  0.49791400  0.09099700  0.47417600  1
  O  1990  1  0.35860700  0.19200100  0.48062800  1
  O  1991  1  0.43728200  0.07619500  0.49052200  1
  O  1992  1  0.41951600  0.20831800  0.46564200  1
  O  2003  1  0.17308700  0.22368200  0.17958300  1
  O  2004  1  0.26457600  0.24351800  0.05248800  1
  O  2005  1  0.23522700  0.24310400  0.18561600  1
  O  2006  1  0.20319600  0.22277000  0.04770600  1
  O  2017  1  0.67262100  0.28387200  0.83296900  1
  O  2018  1  0.76628300  0.26347000  0.95940100  1
  O  2019  1  0.73465900  0.26449600  0.82639800  1
  O  2020  1  0.70494900  0.28415600  0.96463000  1
  O  2031  1  0.91853200  0.57801900  0.47494500  1
  O  2032  1  0.01925850  0.70196400  0.49777100  1
  O  2033  1  0.98050400  0.56984800  0.49378000  1
  O  2034  1  0.95778500  0.70901100  0.47778100  1
  O  2045  1  0.40560100  0.92405000  0.53881900  1
  O  2046  1  0.54402500  0.82292000  0.52967200  1
  O  2047  1  0.46474800  0.93889200  0.52055200  1
  O  2048  1  0.48403200  0.80688900  0.54632300  1
  O  2059  1  0.35155300  0.07765000  0.24312700  1
  O  2060  1  0.19495900  0.15633200  0.20476400  1
  O  2061  1  0.29408600  0.05264700  0.24094000  1
  O  2062  1  0.24700900  0.18294500  0.21741300  1
  O  2073  1  0.85202800  0.42998300  0.76937200  1
  O  2074  1  0.69362300  0.35301400  0.80846000  1
  O  2075  1  0.79527300  0.45559800  0.77152800  1
  O  2076  1  0.74479200  0.32583300  0.79564600  1
  O  2087  1  0.60003200  0.01516500  0.83274400  1
  O  2088  1  0.44359200  0.05566500  0.91069700  1
  O  2089  1  0.54288900  0.01790100  0.80752600  1
  O  2090  1  0.49519600  0.04256000  0.93741100  1
  O  2101  1  0.10092500  0.49275900  0.17988600  1
  O  2102  1  0.94427000  0.45198600  0.10228200  1
  O  2103  1  0.04405450  0.48957400  0.20528100  1
  O  2104  1  0.99574200  0.46495200  0.07540300  1
  O  2115  1  0.05113550  0.42767600  0.24047700  1
  O  2116  1  0.20908300  0.34973000  0.20248500  1
  O  2117  1  0.10862900  0.45268500  0.23873900  1
  O  2118  1  0.15684100  0.32279800  0.21404000  1
  O  2129  1  0.55063900  0.07953300  0.77147600  1
  O  2130  1  0.71050300  0.15555100  0.81032800  1
  O  2131  1  0.60740100  0.05389600  0.77335600  1
  O  2132  1  0.65921000  0.18308100  0.79854500  1
  O  2143  1  0.80480300  0.48731200  0.83444100  1
  O  2144  1  0.96245200  0.44877100  0.91250400  1
  O  2145  1  0.86243400  0.48553400  0.80956500  1
  O  2146  1  0.91017200  0.46028600  0.93940000  1
  O  2157  1  0.30354000  0.01890700  0.17802000  1
  O  2158  1  0.46151500  0.05886300  0.10104100  1
  O  2159  1  0.36056300  0.02138900  0.20336500  1
  O  2160  1  0.40994500  0.04682400  0.07382300  1
  O  2171  1  0.54598900  0.92994100  0.76736500  1
  O  2172  1  0.70030500  0.85146900  0.81023000  1
  O  2173  1  0.60291600  0.95516300  0.77120200  1
  O  2174  1  0.64859300  0.82499400  0.79671300  1
  O  2185  1  0.04600750  0.57712100  0.24540200  1
  O  2186  1  0.20217100  0.65403300  0.20223300  1
  O  2187  1  0.10233500  0.55137700  0.24168500  1
  O  2188  1  0.15127700  0.68108300  0.21579100  1
  O  2199  1  0.85535300  0.57849400  0.76995100  1
  O  2200  1  0.69800100  0.65392600  0.81449700  1
  O  2201  1  0.79919000  0.55257000  0.77349500  1
  O  2202  1  0.74894800  0.68141200  0.80199900  1
  O  2213  1  0.35635700  0.92932900  0.24401400  1
  O  2214  1  0.19740400  0.85616300  0.19817300  1
  O  2215  1  0.30109200  0.95595800  0.24028200  1
  O  2216  1  0.24716100  0.82786700  0.21077500  1
  O  2227  1  0.10926900  0.51623900  0.32943300  1
  O  2228  1  0.94824200  0.55595800  0.40429900  1
  O  2229  1  0.05390750  0.51972800  0.30283800  1
  O  2230  1  0.99828300  0.54257100  0.43203000  1
  O  2241  1  0.61006200  0.99130400  0.68295100  1
  O  2242  1  0.44840400  0.95156300  0.60849200  1
  O  2243  1  0.55486500  0.98757200  0.70964900  1
  O  2244  1  0.49837700  0.96473300  0.58062600  1
  O  2255  1  0.29279000  0.98809100  0.32964800  1
  O  2256  1  0.45478200  0.94758600  0.40338700  1
  O  2257  1  0.34826500  0.98518600  0.30306200  1
  O  2258  1  0.40460000  0.95981400  0.43153200  1
  O  2269  1  0.79309300  0.51854800  0.68375000  1
  O  2270  1  0.95407100  0.55991500  0.60963700  1
  O  2271  1  0.84868100  0.52175800  0.71019500  1
  O  2272  1  0.90386400  0.54751300  0.58157400  1
