# generated using pymatgen
data_H12C18NO2
_symmetry_space_group_name_H-M   'P 1'
_cell_length_a   57.23210000
_cell_length_b   63.22460000
_cell_length_c   63.28740000
_cell_angle_alpha   90.00000000
_cell_angle_beta   90.00000000
_cell_angle_gamma   90.00000000
_symmetry_Int_Tables_number   1
_chemical_formula_structural   H12C18NO2
_chemical_formula_sum   'H768 C1152 N64 O128'
_cell_volume   229003.97785194
_cell_formula_units_Z   64
loop_
 _symmetry_equiv_pos_site_id
 _symmetry_equiv_pos_as_xyz
  1  'x, y, z'
loop_
 _atom_site_type_symbol
 _atom_site_label
 _atom_site_symmetry_multiplicity
 _atom_site_fract_x
 _atom_site_fract_y
 _atom_site_fract_z
 _atom_site_occupancy
  H  7  1  0.95027100  0.37107400  0.86537300  1
  H  16  1  0.99893200  0.40997200  0.88353300  1
  H  19  1  0.01862500  0.36142900  0.90964000  1
  H  20  1  0.99887500  0.34142600  0.84904000  1
  H  21  1  0.92705700  0.37561200  0.93803700  1
  H  22  1  0.03677200  0.41574500  0.81650300  1
  H  29  1  0.45023500  0.10919000  0.13811300  1
  H  38  1  0.49890000  0.07028600  0.11991600  1
  H  41  1  0.51861800  0.11881200  0.09387200  1
  H  42  1  0.49885500  0.13882500  0.15440900  1
  H  43  1  0.42704700  0.10468000  0.06544100  1
  H  44  1  0.53675500  0.06449200  0.18695500  1
  H  51  1  0.20060600  0.37644200  0.13144000  1
  H  60  1  0.24996100  0.35788500  0.16948600  1
  H  63  1  0.26861500  0.33194700  0.12061700  1
  H  64  1  0.24921000  0.39248300  0.10101300  1
  H  65  1  0.17712400  0.30375200  0.13578200  1
  H  66  1  0.28856400  0.42462400  0.17474400  1
  H  73  1  0.70062900  0.10383300  0.87202400  1
  H  82  1  0.74997200  0.12237400  0.83398300  1
  H  85  1  0.76861400  0.14836100  0.88287900  1
  H  86  1  0.74923000  0.08781700  0.90248700  1
  H  87  1  0.67712300  0.17652000  0.86766300  1
  H  88  1  0.78855900  0.05563500  0.82876600  1
  H  95  1  0.51071900  0.11072700  0.86436500  1
  H  104  1  0.46243300  0.07149900  0.88292500  1
  H  107  1  0.44210300  0.11900300  0.90860600  1
  H  108  1  0.46191200  0.13971800  0.84787200  1
  H  109  1  0.53302800  0.13615500  0.93347700  1
  H  110  1  0.42448000  0.06495800  0.81600200  1
  H  117  1  0.01073800  0.36959400  0.13910100  1
  H  126  1  0.96244900  0.40881700  0.12053800  1
  H  129  1  0.94205300  0.36130400  0.09495300  1
  H  130  1  0.96190800  0.34059700  0.15557700  1
  H  131  1  0.03293900  0.34409900  0.06997200  1
  H  132  1  0.92449900  0.41537200  0.18747800  1
  H  139  1  0.26032900  0.10270500  0.12997300  1
  H  148  1  0.21133400  0.12168400  0.16827800  1
  H  151  1  0.19205300  0.14718500  0.12037400  1
  H  152  1  0.21151100  0.08650600  0.10014100  1
  H  153  1  0.28326200  0.17172300  0.10439900  1
  H  154  1  0.17262900  0.05505000  0.17434300  1
  H  161  1  0.76033700  0.37757000  0.87352300  1
  H  170  1  0.71135200  0.35860600  0.83520600  1
  H  173  1  0.69208500  0.33305700  0.88312600  1
  H  174  1  0.71152500  0.39374700  0.90337500  1
  H  175  1  0.78330200  0.30856200  0.89908000  1
  H  176  1  0.67265200  0.42523800  0.82918800  1
  H  183  1  0.00986700  0.61173700  0.13777400  1
  H  192  1  0.95989300  0.57447300  0.11684100  1
  H  195  1  0.94185400  0.62350600  0.09365400  1
  H  196  1  0.96107900  0.64016100  0.15601600  1
  H  197  1  0.03347700  0.60870600  0.06527800  1
  H  198  1  0.92769300  0.56488000  0.18811700  1
  H  205  1  0.50990300  0.86856400  0.86570200  1
  H  214  1  0.45993800  0.90582300  0.88668100  1
  H  217  1  0.44186600  0.85679800  0.90979500  1
  H  218  1  0.46108700  0.84015100  0.84749500  1
  H  219  1  0.53349300  0.87156000  0.93820300  1
  H  220  1  0.42771800  0.91545400  0.81540600  1
  H  227  1  0.76084700  0.60412700  0.87023700  1
  H  236  1  0.71048600  0.62252400  0.83271400  1
  H  239  1  0.69234200  0.64788300  0.88154900  1
  H  240  1  0.71513900  0.58779800  0.90070600  1
  H  241  1  0.78355800  0.67697400  0.86653500  1
  H  242  1  0.67156400  0.55426400  0.83191800  1
  H  249  1  0.26081900  0.87614200  0.13325500  1
  H  258  1  0.21048000  0.85773800  0.17077500  1
  H  261  1  0.19234800  0.83234600  0.12189400  1
  H  262  1  0.21508700  0.89245800  0.10275400  1
  H  263  1  0.28357200  0.80330300  0.13695800  1
  H  264  1  0.17154600  0.92599300  0.17155400  1
  H  271  1  0.45073800  0.86710900  0.13892200  1
  H  280  1  0.50028000  0.90467500  0.11753500  1
  H  283  1  0.51895700  0.85661800  0.09474000  1
  H  284  1  0.49973300  0.83930000  0.15716500  1
  H  285  1  0.42758900  0.84011500  0.07051500  1
  H  286  1  0.53287200  0.91490400  0.18860800  1
  H  293  1  0.95071800  0.61315600  0.86456900  1
  H  302  1  0.00025500  0.57558300  0.88594600  1
  H  305  1  0.01900800  0.62363100  0.90866000  1
  H  306  1  0.99973600  0.64096800  0.84633800  1
  H  307  1  0.92766300  0.64016600  0.93300600  1
  H  308  1  0.03283700  0.56536600  0.81485600  1
  H  315  1  0.69984300  0.87734600  0.87177300  1
  H  324  1  0.74975600  0.85842400  0.83392800  1
  H  327  1  0.76855300  0.83347700  0.88178400  1
  H  328  1  0.74587700  0.89383400  0.90159100  1
  H  329  1  0.67768100  0.80840900  0.89808000  1
  H  330  1  0.78894900  0.92651000  0.83215800  1
  H  337  1  0.19983500  0.60293300  0.13169900  1
  H  346  1  0.24973200  0.62185600  0.16954900  1
  H  349  1  0.26851700  0.64683900  0.12166600  1
  H  350  1  0.24588300  0.58645700  0.10186200  1
  H  351  1  0.17763800  0.67185300  0.10538200  1
  H  352  1  0.28895100  0.55379300  0.17128400  1
  H  359  1  0.44973700  0.87332700  0.36583000  1
  H  368  1  0.50087100  0.91059200  0.38428700  1
  H  371  1  0.51830700  0.86181700  0.40935300  1
  H  372  1  0.49470800  0.84297100  0.34888200  1
  H  373  1  0.42714300  0.87673000  0.43862300  1
  H  374  1  0.53966700  0.91128000  0.31608000  1
  H  381  1  0.94970800  0.60693000  0.63766300  1
  H  390  1  0.00084600  0.56965500  0.61917900  1
  H  393  1  0.01830800  0.61841600  0.59417200  1
  H  394  1  0.99469900  0.63727300  0.65458100  1
  H  395  1  0.92714200  0.60355600  0.56486500  1
  H  396  1  0.03963200  0.56894800  0.68741400  1
  H  403  1  0.70072700  0.87618000  0.63143100  1
  H  412  1  0.75143100  0.85451300  0.66826800  1
  H  415  1  0.76886400  0.83229500  0.61930200  1
  H  416  1  0.74888900  0.89526600  0.60367800  1
  H  417  1  0.67716900  0.80363100  0.63325300  1
  H  418  1  0.78362700  0.92575400  0.67891900  1
  H  425  1  0.20073900  0.60410500  0.37201600  1
  H  434  1  0.25142700  0.62576800  0.33517900  1
  H  437  1  0.26885300  0.64802200  0.38417300  1
  H  438  1  0.24889700  0.58504100  0.39979500  1
  H  439  1  0.17715600  0.67665100  0.37017700  1
  H  440  1  0.28360700  0.55451400  0.32454700  1
  H  447  1  0.01115400  0.60863200  0.36471900  1
  H  456  1  0.96054100  0.57091400  0.38371200  1
  H  459  1  0.94235900  0.61863300  0.40838800  1
  H  460  1  0.96581100  0.63820800  0.34761800  1
  H  461  1  0.03299900  0.63530700  0.43354600  1
  H  462  1  0.92152300  0.56916900  0.31564300  1
  H  469  1  0.51119600  0.87170700  0.63874400  1
  H  478  1  0.46055100  0.90941200  0.61978100  1
  H  481  1  0.44231600  0.86169200  0.59519100  1
  H  482  1  0.46583100  0.84210900  0.65585400  1
  H  483  1  0.53291100  0.84498600  0.56988800  1
  H  484  1  0.42154300  0.91111600  0.68786400  1
  H  491  1  0.76014200  0.60287900  0.63005800  1
  H  500  1  0.70990100  0.62506200  0.66715400  1
  H  503  1  0.69188100  0.64692900  0.61913300  1
  H  504  1  0.71174400  0.58384100  0.60287200  1
  H  505  1  0.78308000  0.67096900  0.60192100  1
  H  506  1  0.67728900  0.55403500  0.67844000  1
  H  513  1  0.26014600  0.87740700  0.37342000  1
  H  522  1  0.20993500  0.85526100  0.33629300  1
  H  525  1  0.19190300  0.83332200  0.38432800  1
  H  526  1  0.21174000  0.89640000  0.40063800  1
  H  527  1  0.28310200  0.80931800  0.40153400  1
  H  528  1  0.17731500  0.92628900  0.32508400  1
  H  535  1  0.51010400  0.11083500  0.63740500  1
  H  544  1  0.45797200  0.07527700  0.61560300  1
  H  547  1  0.44188500  0.12441200  0.59416100  1
  H  548  1  0.46488600  0.13921000  0.65610100  1
  H  549  1  0.53322200  0.10926600  0.56488000  1
  H  550  1  0.42625400  0.06796000  0.68858000  1
  H  557  1  0.01013900  0.36945100  0.36605900  1
  H  566  1  0.95802700  0.40501800  0.38787700  1
  H  569  1  0.94189300  0.35589300  0.40927400  1
  H  570  1  0.96487500  0.34106800  0.34739800  1
  H  571  1  0.03323200  0.37100900  0.43859000  1
  H  572  1  0.92627000  0.41231100  0.31490800  1
  H  579  1  0.26073800  0.10430500  0.37033800  1
  H  588  1  0.20917800  0.12586400  0.33390100  1
  H  591  1  0.19213700  0.14747900  0.38269200  1
  H  592  1  0.21512100  0.08546300  0.39801100  1
  H  593  1  0.28363300  0.17694500  0.36892700  1
  H  594  1  0.17749700  0.05282400  0.32656000  1
  H  601  1  0.76072200  0.37597400  0.63318000  1
  H  610  1  0.70917700  0.35441600  0.66961900  1
  H  613  1  0.69214500  0.33276600  0.62079700  1
  H  614  1  0.71509000  0.39481300  0.60548600  1
  H  615  1  0.78364600  0.30333800  0.63459400  1
  H  616  1  0.67751100  0.42746700  0.67695200  1
  H  623  1  0.95053800  0.36816200  0.63858200  1
  H  632  1  0.00224400  0.40394900  0.61633500  1
  H  635  1  0.01891400  0.35570500  0.59517900  1
  H  636  1  0.99603200  0.34022800  0.65727300  1
  H  637  1  0.92773500  0.33972400  0.57059300  1
  H  638  1  0.03449000  0.41175400  0.68909000  1
  H  645  1  0.45051600  0.11208300  0.36490500  1
  H  654  1  0.50223000  0.07630800  0.38715900  1
  H  657  1  0.51896400  0.12456000  0.40820000  1
  H  658  1  0.49602900  0.14001300  0.34620200  1
  H  659  1  0.42782100  0.14059100  0.43290800  1
  H  660  1  0.53446700  0.06848400  0.31439000  1
  H  667  1  0.19988800  0.37709900  0.37173900  1
  H  676  1  0.25100400  0.35511200  0.33503700  1
  H  679  1  0.26873600  0.33389900  0.38287100  1
  H  680  1  0.24576100  0.39605600  0.39885500  1
  H  681  1  0.17791100  0.30897200  0.40040400  1
  H  682  1  0.28307200  0.42796000  0.32702900  1
  H  689  1  0.69987500  0.10318800  0.63175000  1
  H  698  1  0.75097200  0.12516400  0.66847100  1
  H  701  1  0.76870300  0.14642000  0.62062000  1
  H  702  1  0.74575800  0.08424600  0.60462000  1
  H  703  1  0.67787800  0.17130400  0.60308700  1
  H  704  1  0.78302400  0.05230100  0.67644900  1
  H  711  1  0.03581600  0.37094100  0.76451600  1
  H  712  1  0.03906900  0.37473900  0.80171400  1
  H  719  1  0.97556600  0.39738000  0.73967400  1
  H  720  1  0.97654100  0.40265200  0.70245100  1
  H  721  1  0.02349100  0.35173500  0.69604300  1
  H  722  1  0.96606800  0.37307600  0.80757800  1
  H  723  1  0.02176000  0.34584500  0.73343500  1
  H  725  1  0.94283800  0.36607400  0.77744600  1
  H  726  1  0.95390900  0.36296500  0.75352200  1
  H  733  1  0.53580100  0.10930100  0.23895300  1
  H  734  1  0.53903800  0.10551400  0.20174000  1
  H  741  1  0.47555000  0.08284600  0.26379500  1
  H  742  1  0.47650500  0.07758300  0.30102200  1
  H  743  1  0.52345100  0.12850500  0.30743700  1
  H  744  1  0.46604100  0.10717700  0.19589800  1
  H  745  1  0.52173900  0.13438400  0.27004000  1
  H  747  1  0.44281800  0.11418300  0.22603700  1
  H  748  1  0.45389200  0.11726700  0.24996500  1
  H  755  1  0.28653700  0.47705000  0.13010200  1
  H  756  1  0.29002400  0.43990600  0.13449500  1
  H  763  1  0.22478300  0.50134500  0.15461400  1
  H  764  1  0.22560900  0.53848000  0.16033400  1
  H  765  1  0.27519000  0.54538000  0.11161300  1
  H  766  1  0.21711400  0.43347500  0.13139900  1
  H  767  1  0.27358400  0.50801000  0.10517500  1
  H  769  1  0.19389600  0.46323000  0.12291700  1
  H  770  1  0.20486900  0.48718700  0.11957000  1
  H  777  1  0.78652700  0.00320900  0.87338100  1
  H  778  1  0.79004800  0.04034300  0.86898200  1
  H  785  1  0.72483400  0.97899100  0.84882700  1
  H  786  1  0.72564700  0.94185500  0.84306900  1
  H  787  1  0.77509800  0.93487100  0.89188400  1
  H  788  1  0.71714300  0.04682500  0.87209800  1
  H  789  1  0.77351200  0.97223900  0.89835900  1
  H  791  1  0.69388900  0.01706300  0.88047300  1
  H  792  1  0.70482500  0.99309500  0.88382900  1
  H  799  1  0.42512000  0.10931000  0.76360600  1
  H  800  1  0.42195000  0.10583800  0.80084500  1
  H  807  1  0.48531700  0.08274200  0.73888700  1
  H  808  1  0.48424700  0.07715200  0.70170700  1
  H  809  1  0.43731200  0.12804000  0.69496300  1
  H  810  1  0.49495600  0.10772100  0.80657600  1
  H  811  1  0.43912600  0.13423600  0.73230400  1
  H  813  1  0.51811500  0.11445900  0.77633800  1
  H  814  1  0.50699200  0.11731600  0.75240100  1
  H  821  1  0.92512100  0.37100100  0.23986600  1
  H  822  1  0.92196700  0.37447800  0.20261400  1
  H  829  1  0.98534700  0.39753500  0.26459600  1
  H  830  1  0.98430600  0.40310000  0.30178200  1
  H  831  1  0.93731100  0.35225500  0.30851000  1
  H  832  1  0.99496800  0.37255600  0.19690200  1
  H  833  1  0.93909700  0.34608400  0.27116300  1
  H  835  1  0.01811500  0.36578700  0.22714500  1
  H  836  1  0.00698800  0.36295100  0.25108200  1
  H  843  1  0.17432100  0.00219900  0.13016600  1
  H  844  1  0.17092100  0.03938600  0.13425700  1
  H  851  1  0.23610300  0.97796900  0.15464000  1
  H  852  1  0.23517700  0.94087600  0.16064700  1
  H  853  1  0.18541700  0.93374000  0.11211300  1
  H  854  1  0.24382500  0.04568100  0.13081400  1
  H  855  1  0.18711000  0.97105400  0.10539300  1
  H  857  1  0.26695300  0.01581500  0.12252600  1
  H  858  1  0.25592500  0.99184400  0.11943100  1
  H  865  1  0.67436300  0.47809300  0.87333400  1
  H  866  1  0.67092800  0.44091600  0.86924000  1
  H  873  1  0.73607500  0.50223800  0.84880100  1
  H  874  1  0.73516400  0.53933300  0.84275400  1
  H  875  1  0.68555400  0.54656400  0.89139900  1
  H  876  1  0.74383100  0.43456800  0.87269100  1
  H  877  1  0.68722800  0.50925000  0.89815900  1
  H  879  1  0.76699800  0.46444100  0.88086300  1
  H  880  1  0.75600600  0.48842200  0.88396800  1
  H  887  1  0.92527600  0.60742000  0.23835400  1
  H  888  1  0.92204900  0.60325300  0.20118200  1
  H  895  1  0.98696700  0.58421600  0.26345400  1
  H  896  1  0.98584500  0.57919100  0.30068700  1
  H  897  1  0.93596200  0.62785700  0.30629000  1
  H  898  1  0.99486500  0.60801700  0.19499500  1
  H  899  1  0.93778500  0.63353800  0.26884700  1
  H  901  1  0.01784900  0.61616400  0.22497900  1
  H  902  1  0.00673800  0.61912500  0.24890600  1
  H  909  1  0.42528400  0.87294200  0.76515300  1
  H  910  1  0.42207300  0.87710000  0.80233200  1
  H  917  1  0.48702600  0.89607100  0.74003400  1
  H  918  1  0.48593900  0.90105600  0.70279300  1
  H  919  1  0.43594200  0.85248800  0.69721700  1
  H  920  1  0.49488300  0.87226400  0.80850300  1
  H  921  1  0.43773200  0.84683800  0.73466800  1
  H  923  1  0.51784900  0.86407900  0.77851600  1
  H  924  1  0.50673100  0.86114900  0.75458700  1
  H  931  1  0.53548100  0.87280600  0.23924800  1
  H  932  1  0.53862100  0.87665400  0.20202800  1
  H  939  1  0.47378700  0.89612100  0.26432800  1
  H  940  1  0.47499400  0.90139600  0.30152000  1
  H  941  1  0.52502300  0.85288000  0.30733500  1
  H  942  1  0.46579800  0.87179100  0.19601700  1
  H  943  1  0.52311900  0.84695100  0.26993200  1
  H  945  1  0.44292600  0.86372100  0.22607800  1
  H  946  1  0.45410000  0.86098600  0.25001200  1
  H  953  1  0.03545000  0.60743800  0.76422200  1
  H  954  1  0.03859500  0.60357900  0.80143800  1
  H  961  1  0.97379100  0.58412300  0.73919000  1
  H  962  1  0.97498800  0.57881600  0.70199900  1
  H  963  1  0.02495400  0.62736700  0.69611700  1
  H  964  1  0.96577600  0.60850200  0.80746100  1
  H  965  1  0.02306800  0.63333400  0.73351600  1
  H  967  1  0.94289000  0.61649400  0.77738700  1
  H  968  1  0.95404700  0.61923400  0.75345100  1
  H  975  1  0.78496200  0.97700000  0.63742100  1
  H  976  1  0.78834400  0.93972600  0.64092300  1
  H  983  1  0.72372500  0.00205400  0.66174800  1
  H  984  1  0.72455500  0.03939100  0.66653100  1
  H  985  1  0.77322900  0.04509700  0.61691800  1
  H  986  1  0.71546400  0.93346900  0.63715200  1
  H  987  1  0.77166700  0.00759200  0.61150100  1
  H  989  1  0.69227400  0.96357100  0.62986000  1
  H  990  1  0.70327100  0.98759400  0.62715400  1
  H  997  1  0.28497600  0.50329000  0.36605900  1
  H  998  1  0.28835900  0.54057100  0.36256800  1
  H  1005  1  0.22375400  0.47824300  0.34169400  1
  H  1006  1  0.22456800  0.44090100  0.33692500  1
  H  1007  1  0.27319600  0.43519200  0.38657600  1
  H  1008  1  0.21548000  0.54682800  0.36631200  1
  H  1009  1  0.27164800  0.47270200  0.39197700  1
  H  1011  1  0.19228400  0.51672300  0.37359300  1
  H  1012  1  0.20327800  0.49269900  0.37628200  1
  H  1019  1  0.67576200  0.50237700  0.63740800  1
  H  1020  1  0.67245100  0.53969700  0.64057300  1
  H  1027  1  0.73699000  0.47741600  0.66188700  1
  H  1028  1  0.73610300  0.44011800  0.66695100  1
  H  1029  1  0.68735500  0.43410700  0.61743400  1
  H  1030  1  0.74533900  0.54580400  0.63668900  1
  H  1031  1  0.68896800  0.47157000  0.61174000  1
  H  1033  1  0.76843100  0.51562900  0.62949800  1
  H  1034  1  0.75737600  0.49159800  0.62703200  1
  H  1041  1  0.17577500  0.97791900  0.36612400  1
  H  1042  1  0.17244500  0.94060400  0.36294900  1
  H  1049  1  0.23694400  0.00282500  0.34159300  1
  H  1050  1  0.23606500  0.04012300  0.33649800  1
  H  1051  1  0.18744400  0.04620100  0.38610900  1
  H  1052  1  0.24533100  0.93446900  0.36683000  1
  H  1053  1  0.18904400  0.00873800  0.39183200  1
  H  1055  1  0.26845400  0.96465000  0.37391800  1
  H  1056  1  0.25742500  0.98868700  0.37639700  1
  H  1063  1  0.03909000  0.47419700  0.88101600  1
  H  1064  1  0.03750900  0.43642400  0.87824000  1
  H  1071  1  0.98042500  0.50511500  0.87129100  1
  H  1072  1  0.97858000  0.54275400  0.86979300  1
  H  1073  1  0.04772600  0.54470100  0.84637000  1
  H  1074  1  0.98697200  0.44161500  0.83016600  1
  H  1075  1  0.04917100  0.50681700  0.84700800  1
  H  1077  1  0.97604500  0.47512700  0.81731800  1
  H  1078  1  0.98682000  0.49744400  0.82677500  1
  H  1085  1  0.53908700  0.00606900  0.12243700  1
  H  1086  1  0.53749700  0.04384100  0.12522400  1
  H  1093  1  0.48042800  0.97512900  0.13217000  1
  H  1094  1  0.47860400  0.93748200  0.13366000  1
  H  1095  1  0.54776100  0.93556800  0.15706200  1
  H  1096  1  0.48695200  0.03862700  0.17328700  1
  H  1097  1  0.54917800  0.97346000  0.15643100  1
  H  1099  1  0.47603200  0.00511000  0.18612700  1
  H  1100  1  0.48681400  0.98279700  0.17666600  1
  H  1107  1  0.29104300  0.35887500  0.23259900  1
  H  1108  1  0.28888200  0.36229600  0.19493300  1
  H  1115  1  0.23354000  0.36780300  0.26348400  1
  H  1116  1  0.23072400  0.36946100  0.30097600  1
  H  1117  1  0.29888800  0.39500600  0.30417100  1
  H  1118  1  0.23991800  0.41155500  0.20160600  1
  H  1119  1  0.30130600  0.39410900  0.26636600  1
  H  1121  1  0.22992000  0.42407700  0.23547400  1
  H  1122  1  0.24066400  0.41384400  0.25745100  1
  H  1129  1  0.79102300  0.12133700  0.77086200  1
  H  1130  1  0.78886800  0.11794200  0.80852900  1
  H  1137  1  0.73349900  0.11238100  0.74002300  1
  H  1138  1  0.73067700  0.11075500  0.70251900  1
  H  1139  1  0.79885600  0.08525100  0.69928800  1
  H  1140  1  0.73990800  0.06867200  0.80189600  1
  H  1141  1  0.80129000  0.08611300  0.73709300  1
  H  1143  1  0.72986700  0.05615700  0.76803600  1
  H  1144  1  0.74060400  0.06637400  0.74604800  1
  H  1151  1  0.42181600  0.00728900  0.88086500  1
  H  1152  1  0.42365200  0.04503500  0.87783900  1
  H  1159  1  0.48026900  0.97599900  0.87157500  1
  H  1160  1  0.48187300  0.93834900  0.87035100  1
  H  1161  1  0.41285700  0.93659600  0.84659900  1
  H  1162  1  0.47432800  0.03925500  0.82995100  1
  H  1163  1  0.41166400  0.97449600  0.84695700  1
  H  1165  1  0.48511200  0.00559300  0.81738600  1
  H  1166  1  0.47414600  0.98339800  0.82695200  1
  H  1173  1  0.92181300  0.47303100  0.12263800  1
  H  1174  1  0.92365500  0.43528300  0.12565800  1
  H  1181  1  0.98026600  0.50433100  0.13192700  1
  H  1182  1  0.98185100  0.54199000  0.13314800  1
  H  1183  1  0.91283400  0.54370600  0.15690400  1
  H  1184  1  0.97435900  0.44106100  0.17352100  1
  H  1185  1  0.91166700  0.50580000  0.15654800  1
  H  1187  1  0.98514500  0.47472000  0.18608900  1
  H  1188  1  0.97417200  0.49691800  0.17653300  1
  H  1195  1  0.16980700  0.12118400  0.23136500  1
  H  1196  1  0.17222300  0.11749000  0.19373500  1
  H  1203  1  0.22706300  0.11275800  0.26260500  1
  H  1204  1  0.22967400  0.11137300  0.30011200  1
  H  1205  1  0.16169700  0.08540100  0.30317000  1
  H  1206  1  0.22132000  0.06842500  0.20102600  1
  H  1207  1  0.15950200  0.08601200  0.26534400  1
  H  1209  1  0.23118100  0.05621400  0.23504400  1
  H  1210  1  0.22025100  0.06657300  0.25688900  1
  H  1217  1  0.66983000  0.35914800  0.77212400  1
  H  1218  1  0.67225700  0.36281600  0.80975400  1
  H  1225  1  0.72709400  0.36760400  0.74090900  1
  H  1226  1  0.72969500  0.36895900  0.70339200  1
  H  1227  1  0.66170400  0.39489100  0.70032100  1
  H  1228  1  0.72134000  0.41189400  0.80248700  1
  H  1229  1  0.65950700  0.39431200  0.73814700  1
  H  1231  1  0.73123100  0.42409800  0.76847100  1
  H  1232  1  0.72030000  0.41375500  0.74662100  1
  H  1239  1  0.67029900  0.62187100  0.76927000  1
  H  1240  1  0.67222100  0.61847900  0.80695900  1
  H  1247  1  0.72782600  0.61171900  0.73840600  1
  H  1248  1  0.73056500  0.60983900  0.70088100  1
  H  1249  1  0.66166900  0.58593200  0.69786800  1
  H  1250  1  0.72028500  0.56847000  0.80048800  1
  H  1251  1  0.65933100  0.58696600  0.73566000  1
  H  1253  1  0.73024900  0.55576200  0.76673600  1
  H  1254  1  0.71980200  0.56608800  0.74469200  1
  H  1261  1  0.17029800  0.85849700  0.23424400  1
  H  1262  1  0.17219900  0.86184500  0.19655100  1
  H  1269  1  0.22789000  0.86866500  0.26506400  1
  H  1270  1  0.23061900  0.87051700  0.30260400  1
  H  1271  1  0.16169800  0.89437400  0.30561500  1
  H  1272  1  0.22034800  0.91179700  0.20293600  1
  H  1273  1  0.15937800  0.89336600  0.26781000  1
  H  1275  1  0.23035300  0.92453300  0.23667000  1
  H  1276  1  0.21990600  0.91424600  0.25873100  1
  H  1283  1  0.79039200  0.85856500  0.77046300  1
  H  1284  1  0.78824300  0.86222600  0.80812200  1
  H  1291  1  0.73306100  0.86828300  0.73925200  1
  H  1292  1  0.73051800  0.86990700  0.70172100  1
  H  1293  1  0.79927300  0.89416700  0.69884200  1
  H  1294  1  0.74001500  0.91202500  0.80106800  1
  H  1295  1  0.80139600  0.89339300  0.73666700  1
  H  1297  1  0.73024400  0.92448700  0.76717500  1
  H  1298  1  0.74086900  0.91403700  0.74525800  1
  H  1305  1  0.29036300  0.62168700  0.23301800  1
  H  1306  1  0.28820700  0.61805200  0.19536000  1
  H  1313  1  0.23303400  0.61192700  0.26420000  1
  H  1314  1  0.23049100  0.61032600  0.30174000  1
  H  1315  1  0.29926000  0.58610800  0.30463700  1
  H  1316  1  0.24001600  0.56821900  0.20238500  1
  H  1317  1  0.30139400  0.58685400  0.26681300  1
  H  1319  1  0.23021700  0.55576200  0.23627500  1
  H  1320  1  0.24083500  0.56619900  0.25820000  1
  H  1327  1  0.54228700  0.97330800  0.38443200  1
  H  1328  1  0.53947700  0.93565400  0.38066200  1
  H  1335  1  0.48599600  0.00457800  0.37567800  1
  H  1336  1  0.48269900  0.04204100  0.37361800  1
  H  1337  1  0.55030700  0.04557800  0.34696300  1
  H  1338  1  0.49203700  0.94357900  0.33042300  1
  H  1339  1  0.55314800  0.00778700  0.34820200  1
  H  1341  1  0.48289900  0.97768600  0.31807500  1
  H  1342  1  0.49371600  0.99943900  0.32874800  1
  H  1349  1  0.04227900  0.50693400  0.61906800  1
  H  1350  1  0.03947000  0.54459000  0.62284200  1
  H  1357  1  0.98596200  0.47565500  0.62782500  1
  H  1358  1  0.98269500  0.43817800  0.62987100  1
  H  1359  1  0.05032500  0.43467900  0.65648800  1
  H  1360  1  0.99197800  0.53666300  0.67304000  1
  H  1361  1  0.05312800  0.47248400  0.65526500  1
  H  1363  1  0.98282800  0.50255600  0.68538000  1
  H  1364  1  0.99365200  0.48080400  0.67471400  1
  H  1371  1  0.91867500  0.50815500  0.38434200  1
  H  1372  1  0.92170500  0.54577500  0.38030300  1
  H  1379  1  0.97476900  0.47650100  0.37607200  1
  H  1380  1  0.97782900  0.43903500  0.37422300  1
  H  1381  1  0.91040700  0.43570400  0.34715800  1
  H  1382  1  0.96942100  0.53727700  0.33037200  1
  H  1383  1  0.90782400  0.47353300  0.34817200  1
  H  1385  1  0.97841600  0.50303700  0.31829900  1
  H  1386  1  0.96740100  0.48141200  0.32906700  1
  H  1393  1  0.41868600  0.97214100  0.61912800  1
  H  1394  1  0.42173900  0.93452600  0.62318000  1
  H  1401  1  0.47474200  0.00379800  0.62742700  1
  H  1402  1  0.47779500  0.04127500  0.62926500  1
  H  1403  1  0.41037100  0.04461000  0.65631100  1
  H  1404  1  0.46936900  0.94306800  0.67316900  1
  H  1405  1  0.40778300  0.00678500  0.65531400  1
  H  1407  1  0.47836300  0.97731900  0.68521300  1
  H  1408  1  0.46735500  0.99893600  0.67442200  1
  H  1415  1  0.83890700  0.35079400  0.91604400  1
  H  1416  1  0.79761400  0.34572800  0.91459000  1
  H  1423  1  0.86968000  0.39174500  0.87816300  1
  H  1424  1  0.91104600  0.39487500  0.88358100  1
  H  1425  1  0.91450600  0.32996800  0.89944500  1
  H  1426  1  0.79826500  0.35770000  0.84911700  1
  H  1427  1  0.87326000  0.32676500  0.89374100  1
  H  1429  1  0.83419800  0.36471400  0.83177600  1
  H  1430  1  0.85962600  0.36465600  0.84419100  1
  H  1437  1  0.33888500  0.12949500  0.08743100  1
  H  1438  1  0.29758800  0.13455800  0.08888900  1
  H  1445  1  0.36965800  0.08854200  0.12530400  1
  H  1446  1  0.41102600  0.08541400  0.11989800  1
  H  1447  1  0.41448900  0.15032500  0.10405000  1
  H  1448  1  0.29824300  0.12257900  0.15436000  1
  H  1449  1  0.37324000  0.15352500  0.10974100  1
  H  1451  1  0.33418100  0.11556200  0.17169800  1
  H  1452  1  0.35960900  0.11563600  0.15928300  1
  H  1459  1  0.08860000  0.32635100  0.11176500  1
  H  1460  1  0.04729800  0.32822700  0.10685800  1
  H  1467  1  0.12011400  0.36369400  0.15277800  1
  H  1468  1  0.16149200  0.35810600  0.15552300  1
  H  1469  1  0.16424100  0.34277700  0.09051900  1
  H  1470  1  0.04875100  0.39366300  0.11929800  1
  H  1471  1  0.12299000  0.34865100  0.08770300  1
  H  1473  1  0.08489600  0.41064600  0.12625300  1
  H  1474  1  0.11018400  0.39799100  0.12601800  1
  H  1481  1  0.58861400  0.15393400  0.89163000  1
  H  1482  1  0.54731500  0.15205800  0.89656800  1
  H  1489  1  0.62013400  0.11662000  0.85062300  1
  H  1490  1  0.66151900  0.12220500  0.84790100  1
  H  1491  1  0.66423400  0.13747100  0.91292000  1
  H  1492  1  0.54876200  0.08661600  0.88415000  1
  H  1493  1  0.62298100  0.13159900  0.91571400  1
  H  1495  1  0.58490100  0.06964000  0.87714200  1
  H  1496  1  0.61018900  0.08229600  0.87734400  1
  H  1503  1  0.12211000  0.63003500  0.08804500  1
  H  1504  1  0.16345300  0.63460300  0.08992400  1
  H  1511  1  0.08976800  0.59001400  0.12552600  1
  H  1512  1  0.04836900  0.58793800  0.11979200  1
  H  1513  1  0.04699200  0.65300700  0.10432400  1
  H  1514  1  0.16171900  0.62325400  0.15549600  1
  H  1515  1  0.08826900  0.65514700  0.11030400  1
  H  1517  1  0.12544800  0.61672700  0.17246900  1
  H  1518  1  0.10020400  0.61692900  0.15974900  1
  H  1525  1  0.62213700  0.85022200  0.91543700  1
  H  1526  1  0.66348100  0.84565400  0.91355200  1
  H  1533  1  0.58980000  0.89025700  0.87797300  1
  H  1534  1  0.54839800  0.89233500  0.88369600  1
  H  1535  1  0.54700800  0.82725700  0.89913400  1
  H  1536  1  0.66174400  0.85702900  0.84798600  1
  H  1537  1  0.58828900  0.82511900  0.89316600  1
  H  1539  1  0.62546900  0.86356600  0.83101900  1
  H  1540  1  0.60022400  0.86334500  0.84373700  1
  H  1547  1  0.87162800  0.65569900  0.89065200  1
  H  1548  1  0.91292500  0.65477700  0.89583300  1
  H  1555  1  0.84147000  0.61748900  0.84992600  1
  H  1556  1  0.80004400  0.62258200  0.84678700  1
  H  1557  1  0.79636800  0.63809200  0.91171600  1
  H  1558  1  0.91325300  0.58914100  0.88438700  1
  H  1559  1  0.83766600  0.63275100  0.91491200  1
  H  1561  1  0.87759100  0.57130900  0.87738800  1
  H  1562  1  0.85199600  0.58345800  0.87722700  1
  H  1569  1  0.37162200  0.82457800  0.11292500  1
  H  1570  1  0.41291500  0.82550000  0.10771600  1
  H  1577  1  0.34144300  0.86276300  0.15362900  1
  H  1578  1  0.30001300  0.85766800  0.15673800  1
  H  1579  1  0.29638600  0.84220700  0.09179700  1
  H  1580  1  0.41324000  0.89114700  0.11911500  1
  H  1581  1  0.33768600  0.84755300  0.08862800  1
  H  1583  1  0.37758200  0.90897200  0.12615600  1
  H  1584  1  0.35198900  0.89681900  0.12635400  1
  H  1591  1  0.33887400  0.85210900  0.41696300  1
  H  1592  1  0.29763400  0.84662800  0.41575400  1
  H  1599  1  0.36900400  0.89285400  0.37870700  1
  H  1600  1  0.41036900  0.89636000  0.38396900  1
  H  1601  1  0.41457000  0.83152200  0.39997600  1
  H  1602  1  0.29784700  0.85759700  0.35010100  1
  H  1603  1  0.37333900  0.82795700  0.39447400  1
  H  1605  1  0.33361000  0.86477300  0.33252800  1
  H  1606  1  0.35908300  0.86522200  0.34486200  1
  H  1613  1  0.83886700  0.62817200  0.58650600  1
  H  1614  1  0.79762400  0.63365400  0.58770700  1
  H  1621  1  0.86898400  0.58743100  0.62476400  1
  H  1622  1  0.91035400  0.58392500  0.61952000  1
  H  1623  1  0.91456400  0.64876500  0.60352500  1
  H  1624  1  0.79782300  0.62269500  0.65336100  1
  H  1625  1  0.87332800  0.65233000  0.60900600  1
  H  1627  1  0.83358500  0.61551400  0.67094100  1
  H  1628  1  0.85906200  0.61507400  0.65861200  1
  H  1635  1  0.58836600  0.82718000  0.61160100  1
  H  1636  1  0.54706500  0.82947200  0.60689700  1
  H  1643  1  0.62074400  0.86424000  0.65205600  1
  H  1644  1  0.66207200  0.85825500  0.65445300  1
  H  1645  1  0.66400100  0.84299700  0.58940500  1
  H  1646  1  0.54948000  0.89501100  0.61867200  1
  H  1647  1  0.62278500  0.84921600  0.58695300  1
  H  1649  1  0.58590500  0.91163100  0.62537300  1
  H  1650  1  0.61101000  0.89867400  0.62517100  1
  H  1657  1  0.08836700  0.65312900  0.39176500  1
  H  1658  1  0.04707200  0.65084000  0.39650300  1
  H  1665  1  0.12075400  0.61607800  0.35133200  1
  H  1666  1  0.16208800  0.62205700  0.34895900  1
  H  1667  1  0.16398100  0.63727600  0.41401500  1
  H  1668  1  0.04947500  0.58529100  0.38477800  1
  H  1669  1  0.12276200  0.63106300  0.41644500  1
  H  1671  1  0.08589400  0.56867100  0.37803100  1
  H  1672  1  0.11099700  0.58162800  0.37819600  1
  H  1679  1  0.62198800  0.12933800  0.58722600  1
  H  1680  1  0.66334100  0.13395500  0.58880500  1
  H  1687  1  0.58989600  0.08980200  0.62503900  1
  H  1688  1  0.54846300  0.08773700  0.61948400  1
  H  1689  1  0.54704100  0.15281200  0.60403000  1
  H  1690  1  0.66204600  0.12362000  0.65455600  1
  H  1691  1  0.58835300  0.15492100  0.60977600  1
  H  1693  1  0.62589300  0.11723400  0.67180500  1
  H  1694  1  0.60057500  0.11716000  0.65919900  1
  H  1701  1  0.12200700  0.35094100  0.41626500  1
  H  1702  1  0.16336300  0.34632600  0.41468900  1
  H  1709  1  0.08992100  0.39047300  0.37845200  1
  H  1710  1  0.04848400  0.39253400  0.38399000  1
  H  1711  1  0.04706200  0.32745500  0.39942900  1
  H  1712  1  0.16207800  0.35666200  0.34894000  1
  H  1713  1  0.08837900  0.32535100  0.39370300  1
  H  1715  1  0.12592600  0.36304900  0.33168500  1
  H  1716  1  0.10060500  0.36310900  0.34428700  1
  H  1723  1  0.37162900  0.15539600  0.39069400  1
  H  1724  1  0.41295700  0.15448100  0.39562200  1
  H  1731  1  0.34098000  0.11714000  0.35065900  1
  H  1732  1  0.29955200  0.12237800  0.34789200  1
  H  1733  1  0.29663400  0.13782400  0.41286800  1
  H  1734  1  0.41309200  0.08869600  0.38504500  1
  H  1735  1  0.33794800  0.13239500  0.41567700  1
  H  1737  1  0.37733900  0.07085300  0.37837600  1
  H  1738  1  0.35177500  0.08305900  0.37816600  1
  H  1745  1  0.87162300  0.32488300  0.61287100  1
  H  1746  1  0.91294700  0.32580100  0.60790600  1
  H  1753  1  0.84096900  0.36311200  0.65290300  1
  H  1754  1  0.79953700  0.35787500  0.65565200  1
  H  1755  1  0.79664200  0.34247900  0.59066600  1
  H  1756  1  0.91308200  0.39159100  0.61846000  1
  H  1757  1  0.83795800  0.34790900  0.58787200  1
  H  1759  1  0.87733400  0.40942800  0.62517700  1
  H  1760  1  0.85177200  0.39721700  0.62542500  1
  H  1767  1  0.96540600  0.33592500  0.98772900  1
  H  1768  1  0.96325800  0.33525600  0.95051500  1
  H  1775  1  0.96893300  0.39641100  0.01878200  1
  H  1776  1  0.97167000  0.39605200  0.05649500  1
  H  1777  1  0.99419400  0.33266800  0.05432900  1
  H  1778  1  0.99407100  0.39538400  0.94735500  1
  H  1779  1  0.99384300  0.33369500  0.01688700  1
  H  1781  1  0.01028400  0.41028800  0.97819500  1
  H  1782  1  0.00824000  0.39918800  0.00171200  1
  H  1789  1  0.46545600  0.14435100  0.01575000  1
  H  1790  1  0.46329400  0.14502000  0.05297200  1
  H  1797  1  0.46891200  0.08386800  0.98470400  1
  H  1798  1  0.47165000  0.08422500  0.94698400  1
  H  1799  1  0.49428400  0.14758300  0.94916300  1
  H  1800  1  0.49404600  0.08487100  0.05614200  1
  H  1801  1  0.49392400  0.14655100  0.98661200  1
  H  1803  1  0.51024900  0.06994700  0.02530800  1
  H  1804  1  0.50821800  0.08104100  0.00178700  1
  H  1811  1  0.21528100  0.25405500  0.09559600  1
  H  1812  1  0.21302000  0.29133400  0.09502800  1
  H  1819  1  0.21868700  0.22314400  0.15587400  1
  H  1820  1  0.22139300  0.18539600  0.15557400  1
  H  1821  1  0.24464200  0.18747500  0.09243700  1
  H  1822  1  0.24418100  0.29440600  0.15497700  1
  H  1823  1  0.24422000  0.22498500  0.09340100  1
  H  1825  1  0.26058500  0.26353500  0.16968800  1
  H  1826  1  0.25846700  0.24001300  0.15854800  1
  H  1833  1  0.71524700  0.22622500  0.90786700  1
  H  1834  1  0.71297000  0.18894900  0.90843100  1
  H  1841  1  0.71868200  0.25713400  0.84761500  1
  H  1842  1  0.72141000  0.29489000  0.84791300  1
  H  1843  1  0.74469400  0.29280100  0.91104100  1
  H  1844  1  0.74422600  0.18587400  0.84851400  1
  H  1845  1  0.74424700  0.25528500  0.91007900  1
  H  1847  1  0.76056600  0.21676100  0.83377500  1
  H  1848  1  0.75843400  0.24029400  0.84487800  1
  H  1855  1  0.99542900  0.64890600  0.01567600  1
  H  1856  1  0.99763800  0.64943600  0.05292700  1
  H  1863  1  0.99226300  0.58862600  0.98482800  1
  H  1864  1  0.98960700  0.58887900  0.94711800  1
  H  1865  1  0.96604700  0.65199600  0.94909900  1
  H  1866  1  0.96647700  0.58941000  0.05587500  1
  H  1867  1  0.96640700  0.65105700  0.98657800  1
  H  1869  1  0.95029700  0.57459300  0.02497500  1
  H  1870  1  0.95244600  0.58574100  0.00148400  1
  H  1877  1  0.49539500  0.83137000  0.98780500  1
  H  1878  1  0.49762100  0.83084100  0.95054700  1
  H  1885  1  0.49226200  0.89164400  0.01865000  1
  H  1886  1  0.48960100  0.89138800  0.05636600  1
  H  1887  1  0.46596900  0.82828900  0.05436500  1
  H  1888  1  0.46649300  0.89087800  0.94759000  1
  H  1889  1  0.46634000  0.82923400  0.01687900  1
  H  1891  1  0.45031200  0.90570600  0.97848400  1
  H  1892  1  0.45245100  0.89456200  0.00197800  1
  H  1899  1  0.74525500  0.72614000  0.90679200  1
  H  1900  1  0.74746000  0.68886500  0.90730100  1
  H  1907  1  0.74190900  0.75709300  0.84640400  1
  H  1908  1  0.73926000  0.79484000  0.84665600  1
  H  1909  1  0.71643700  0.79289700  0.90991800  1
  H  1910  1  0.71651700  0.68592800  0.84725900  1
  H  1911  1  0.71674300  0.75539100  0.90900000  1
  H  1913  1  0.70008100  0.71682100  0.83262600  1
  H  1914  1  0.70216400  0.74031700  0.84382700  1
  H  1921  1  0.24530300  0.75412400  0.09668500  1
  H  1922  1  0.24752900  0.79139600  0.09618000  1
  H  1929  1  0.24191800  0.72317900  0.15704300  1
  H  1930  1  0.23924300  0.68542800  0.15679900  1
  H  1931  1  0.21638000  0.68737500  0.09354600  1
  H  1932  1  0.21647600  0.79433800  0.15618500  1
  H  1933  1  0.21671400  0.72488700  0.09445800  1
  H  1935  1  0.20009400  0.76343100  0.17084500  1
  H  1936  1  0.20219100  0.73992400  0.15968000  1
  H  1943  1  0.46544500  0.83652800  0.48767400  1
  H  1944  1  0.46323100  0.83604800  0.45044200  1
  H  1951  1  0.46897100  0.89698300  0.51864100  1
  H  1952  1  0.47164300  0.89676200  0.55634800  1
  H  1953  1  0.49415800  0.83335800  0.55446100  1
  H  1954  1  0.49434700  0.89607400  0.44754400  1
  H  1955  1  0.49384000  0.83423900  0.51699700  1
  H  1957  1  0.51071300  0.91074600  0.47843700  1
  H  1958  1  0.50861100  0.89954600  0.50190400  1
  H  1965  1  0.96550500  0.64375600  0.51582200  1
  H  1966  1  0.96327900  0.64422700  0.55306100  1
  H  1973  1  0.96895400  0.58331300  0.48484200  1
  H  1974  1  0.97162800  0.58354400  0.44712900  1
  H  1975  1  0.99425800  0.64692100  0.44904900  1
  H  1976  1  0.99432700  0.58417800  0.55595500  1
  H  1977  1  0.99393000  0.64602300  0.48652200  1
  H  1979  1  0.01068000  0.56949200  0.52506500  1
  H  1980  1  0.00859100  0.58069000  0.50159600  1
  H  1987  1  0.71556200  0.75412300  0.59336800  1
  H  1988  1  0.71328500  0.79142300  0.59292100  1
  H  1995  1  0.71862100  0.72324400  0.65365500  1
  H  1996  1  0.72130800  0.68551700  0.65348000  1
  H  1997  1  0.74482800  0.68737400  0.59041300  1
  H  1998  1  0.74418900  0.79426500  0.65299400  1
  H  1999  1  0.74443900  0.72490200  0.59127100  1
  H  2001  1  0.76060500  0.76338400  0.66762000  1
  H  2002  1  0.75856000  0.73990100  0.65638500  1
  H  2009  1  0.21551500  0.72617000  0.41007100  1
  H  2010  1  0.21322500  0.68887500  0.41052100  1
  H  2017  1  0.21861300  0.75704300  0.34980600  1
  H  2018  1  0.22132200  0.79477600  0.34997500  1
  H  2019  1  0.24485700  0.79291600  0.41304100  1
  H  2020  1  0.24422100  0.68602100  0.35047800  1
  H  2021  1  0.24444500  0.75538200  0.41218700  1
  H  2023  1  0.26057800  0.71691600  0.33582100  1
  H  2024  1  0.25852100  0.74041100  0.34701700  1
  H  2031  1  0.49528000  0.14980600  0.51578400  1
  H  2032  1  0.49743800  0.15019600  0.55305700  1
  H  2039  1  0.49235700  0.08952500  0.48498100  1
  H  2040  1  0.48984200  0.08962900  0.44727600  1
  H  2041  1  0.46612500  0.15270200  0.44892500  1
  H  2042  1  0.46618200  0.09019800  0.55573500  1
  H  2043  1  0.46639700  0.15192700  0.48642600  1
  H  2045  1  0.45003600  0.07551300  0.52475900  1
  H  2046  1  0.45227400  0.08673100  0.50130700  1
  H  2053  1  0.99523500  0.33048400  0.48769100  1
  H  2054  1  0.99740900  0.33009000  0.45041100  1
  H  2061  1  0.99237000  0.39076600  0.51847800  1
  H  2062  1  0.98985200  0.39066800  0.55619200  1
  H  2063  1  0.96604000  0.32761600  0.55453600  1
  H  2064  1  0.96620100  0.39010100  0.44771500  1
  H  2065  1  0.96632300  0.32839300  0.51702900  1
  H  2067  1  0.95005800  0.40480800  0.47868200  1
  H  2068  1  0.95228500  0.39359900  0.50213800  1
  H  2075  1  0.24513300  0.22606400  0.40880400  1
  H  2076  1  0.24732600  0.18877500  0.40923800  1
  H  2083  1  0.24203900  0.25701700  0.34840800  1
  H  2084  1  0.23936400  0.29474100  0.34857700  1
  H  2085  1  0.21637500  0.29292900  0.41179600  1
  H  2086  1  0.21663200  0.18600700  0.34908100  1
  H  2087  1  0.21667900  0.25541200  0.41094100  1
  H  2089  1  0.20020400  0.21690100  0.33449300  1
  H  2090  1  0.20221900  0.24036700  0.34576300  1
  H  2097  1  0.74517300  0.25421300  0.59470800  1
  H  2098  1  0.74738300  0.29149700  0.59427700  1
  H  2105  1  0.74204300  0.22326300  0.65508000  1
  H  2106  1  0.73934200  0.18553200  0.65491400  1
  H  2107  1  0.71633000  0.18735100  0.59169800  1
  H  2108  1  0.71659600  0.29427000  0.65440400  1
  H  2109  1  0.71665900  0.22487500  0.59255100  1
  H  2111  1  0.70022600  0.26336300  0.66902000  1
  H  2112  1  0.70225100  0.23988500  0.65778500  1
  C  1  1  0.98026600  0.37268700  0.88489500  1
  C  2  1  0.95638800  0.36932300  0.88050600  1
  C  3  1  0.94032200  0.36480800  0.89665400  1
  C  4  1  0.94789800  0.36391200  0.91786200  1
  C  5  1  0.97184600  0.36666100  0.92313200  1
  C  6  1  0.98777100  0.37147700  0.90641500  1
  C  9  1  0.99428300  0.38079300  0.86786800  1
  C  10  1  0.99530800  0.37108000  0.84749300  1
  C  11  1  0.00450900  0.38190700  0.82958900  1
  C  12  1  0.01237900  0.40300600  0.83233200  1
  C  13  1  0.01041300  0.41331100  0.85214200  1
  C  14  1  0.00196400  0.40194000  0.86972200  1
  C  23  1  0.48022700  0.10756200  0.11858700  1
  C  24  1  0.45635700  0.11095600  0.12298400  1
  C  25  1  0.44030500  0.11547900  0.10682800  1
  C  26  1  0.44788800  0.11637300  0.08562000  1
  C  27  1  0.47183500  0.11360700  0.08035500  1
  C  28  1  0.48775400  0.10878200  0.09707500  1
  C  31  1  0.49424000  0.09944100  0.13562000  1
  C  32  1  0.49527400  0.10917500  0.15598400  1
  C  33  1  0.50446500  0.09833000  0.17388100  1
  C  34  1  0.51235600  0.07723400  0.17114000  1
  C  35  1  0.51038800  0.06694300  0.15132400  1
  C  36  1  0.50190200  0.07829200  0.13374900  1
  C  45  1  0.23053300  0.35676500  0.13249300  1
  C  46  1  0.20661800  0.36128400  0.12950900  1
  C  47  1  0.19041400  0.34519500  0.12511800  1
  C  48  1  0.19789200  0.32394800  0.12399300  1
  C  49  1  0.22185600  0.31861200  0.12644100  1
  C  50  1  0.23794500  0.33523400  0.13109900  1
  C  53  1  0.24478700  0.37366000  0.14048600  1
  C  54  1  0.24593000  0.39397000  0.13066800  1
  C  55  1  0.25547900  0.41182200  0.14133800  1
  C  56  1  0.26379100  0.40903900  0.16228500  1
  C  57  1  0.26191100  0.38921600  0.17261700  1
  C  58  1  0.25292800  0.37171500  0.16145100  1
  C  67  1  0.73055300  0.12351800  0.87098400  1
  C  68  1  0.70663700  0.11899400  0.87395500  1
  C  69  1  0.69042400  0.13508100  0.87832900  1
  C  70  1  0.69789500  0.15632900  0.87945500  1
  C  71  1  0.72186100  0.16167000  0.87703600  1
  C  72  1  0.73795500  0.14505200  0.87237800  1
  C  75  1  0.74481400  0.10662300  0.86300500  1
  C  76  1  0.74595900  0.08631900  0.87283100  1
  C  77  1  0.75552900  0.06846300  0.86218500  1
  C  78  1  0.76379300  0.07123000  0.84121700  1
  C  79  1  0.76189400  0.09104800  0.83086700  1
  C  80  1  0.75297200  0.10856800  0.84204600  1
  C  89  1  0.48077700  0.10900100  0.88393500  1
  C  90  1  0.50457700  0.11271500  0.87946100  1
  C  91  1  0.52062700  0.11761600  0.89551800  1
  C  92  1  0.51305500  0.11892400  0.91672800  1
  C  93  1  0.48928300  0.11529900  0.92208800  1
  C  94  1  0.47338500  0.11007500  0.90549500  1
  C  97  1  0.46687100  0.10056200  0.86698500  1
  C  98  1  0.46572300  0.11007700  0.84651800  1
  C  99  1  0.45659000  0.09902200  0.82872800  1
  C  100  1  0.44884900  0.07791400  0.83168300  1
  C  101  1  0.45089400  0.06781900  0.85159200  1
  C  102  1  0.45934000  0.07938700  0.86904400  1
  C  111  1  0.98078500  0.37131900  0.11954700  1
  C  112  1  0.00458100  0.36757900  0.12401300  1
  C  113  1  0.02060500  0.36266400  0.10793900  1
  C  114  1  0.01299700  0.36134200  0.08674000  1
  C  115  1  0.98922400  0.36497200  0.08139900  1
  C  116  1  0.97334900  0.37021800  0.09800200  1
  C  119  1  0.96689400  0.37977300  0.13650900  1
  C  120  1  0.96574100  0.37023300  0.15696200  1
  C  121  1  0.95662200  0.38130100  0.17474900  1
  C  122  1  0.94886800  0.40240800  0.17180400  1
  C  123  1  0.95091200  0.41249600  0.15189100  1
  C  124  1  0.95939000  0.40095200  0.13443900  1
  C  133  1  0.23045300  0.12243400  0.13107400  1
  C  134  1  0.25430300  0.11782500  0.12777800  1
  C  135  1  0.27050700  0.13381700  0.12302400  1
  C  136  1  0.26303900  0.15505900  0.12146100  1
  C  137  1  0.23923500  0.16049600  0.12473100  1
  C  138  1  0.22315600  0.14400600  0.12978600  1
  C  141  1  0.21629500  0.10562500  0.13939900  1
  C  142  1  0.21503100  0.08521900  0.12978600  1
  C  143  1  0.20555100  0.06748100  0.14069100  1
  C  144  1  0.19737000  0.07048400  0.16164800  1
  C  145  1  0.19932900  0.09041200  0.17176600  1
  C  146  1  0.20830600  0.10778100  0.16039200  1
  C  155  1  0.73046800  0.35783200  0.87242100  1
  C  156  1  0.75431600  0.36244800  0.87571300  1
  C  157  1  0.77053100  0.34646000  0.88045700  1
  C  158  1  0.76307200  0.32521500  0.88201200  1
  C  159  1  0.73926300  0.31977300  0.87876300  1
  C  160  1  0.72318000  0.33625800  0.87370400  1
  C  163  1  0.71630100  0.37464200  0.86410800  1
  C  164  1  0.71503600  0.39504400  0.87372900  1
  C  165  1  0.70553200  0.41278400  0.86284500  1
  C  166  1  0.69739400  0.40979500  0.84187100  1
  C  167  1  0.69937000  0.38987400  0.83173800  1
  C  168  1  0.70829100  0.37248600  0.84312100  1
  C  177  1  0.97993800  0.61113100  0.11810500  1
  C  178  1  0.00384400  0.61408100  0.12269200  1
  C  179  1  0.02008800  0.61881600  0.10674600  1
  C  180  1  0.01265400  0.62030900  0.08552900  1
  C  181  1  0.98870200  0.61795700  0.08012000  1
  C  182  1  0.97257600  0.61304500  0.09661600  1
  C  185  1  0.96584300  0.60217900  0.13462200  1
  C  186  1  0.96508900  0.61051400  0.15557200  1
  C  187  1  0.95659900  0.59832700  0.17287200  1
  C  188  1  0.94911800  0.57726600  0.16891700  1
  C  189  1  0.94990000  0.56860800  0.14825600  1
  C  190  1  0.95780000  0.58133200  0.13140500  1
  C  199  1  0.47997900  0.86917500  0.88537900  1
  C  200  1  0.50387800  0.86619800  0.88077900  1
  C  201  1  0.52011200  0.86145600  0.89673200  1
  C  202  1  0.51267000  0.85996300  0.91794800  1
  C  203  1  0.48871900  0.86232800  0.92335500  1
  C  204  1  0.47259500  0.86724500  0.90685900  1
  C  207  1  0.46588500  0.87814700  0.86886100  1
  C  208  1  0.46512400  0.86979500  0.84792100  1
  C  209  1  0.45664200  0.88200200  0.83063200  1
  C  210  1  0.44915000  0.90306200  0.83459600  1
  C  211  1  0.44993500  0.91171300  0.85526100  1
  C  212  1  0.45786900  0.89899400  0.87210000  1
  C  221  1  0.73065300  0.62349000  0.86939500  1
  C  222  1  0.75463600  0.61920100  0.87229600  1
  C  223  1  0.77064600  0.63538600  0.87688400  1
  C  224  1  0.76293900  0.65655300  0.87815200  1
  C  225  1  0.73892600  0.66169800  0.87571500  1
  C  226  1  0.72301400  0.64495600  0.87096700  1
  C  229  1  0.71650900  0.60647100  0.86144700  1
  C  230  1  0.71614200  0.58594500  0.87092900  1
  C  231  1  0.70710800  0.56811900  0.85992700  1
  C  232  1  0.69744600  0.57122200  0.83954700  1
  C  233  1  0.69872100  0.59115800  0.82942000  1
  C  234  1  0.70785800  0.60857700  0.84063900  1
  C  243  1  0.23063500  0.85676500  0.13407800  1
  C  244  1  0.25461800  0.86106500  0.13119200  1
  C  245  1  0.27064000  0.84488800  0.12661500  1
  C  246  1  0.26294500  0.82371800  0.12534100  1
  C  247  1  0.23893100  0.81856300  0.12774700  1
  C  248  1  0.22300900  0.83529700  0.13249900  1
  C  251  1  0.21647600  0.87377600  0.14201900  1
  C  252  1  0.21609900  0.89429900  0.13253100  1
  C  253  1  0.20703400  0.91212600  0.14351000  1
  C  254  1  0.19742200  0.90903300  0.16391400  1
  C  255  1  0.19872900  0.88909700  0.17404300  1
  C  256  1  0.20781200  0.87165900  0.16281900  1
  C  265  1  0.48057800  0.86779900  0.11915500  1
  C  266  1  0.45675600  0.86450900  0.12387900  1
  C  267  1  0.44049600  0.85936400  0.10806900  1
  C  268  1  0.44787400  0.85742100  0.08685300  1
  C  269  1  0.47165500  0.86061600  0.08128700  1
  C  270  1  0.48779400  0.86597000  0.09761500  1
  C  273  1  0.49459100  0.87707800  0.13555900  1
  C  274  1  0.49550700  0.86892300  0.15657800  1
  C  275  1  0.50396400  0.88131600  0.17374200  1
  C  276  1  0.51138100  0.90235000  0.16957400  1
  C  277  1  0.51048100  0.91081700  0.14884000  1
  C  278  1  0.50247500  0.89794500  0.13214300  1
  C  287  1  0.98056900  0.61245800  0.88432200  1
  C  288  1  0.95675000  0.61577600  0.87960400  1
  C  289  1  0.94051600  0.62092300  0.89543500  1
  C  290  1  0.94792800  0.62286400  0.91664100  1
  C  291  1  0.97171300  0.61966700  0.92218700  1
  C  292  1  0.98783000  0.61430100  0.90584600  1
  C  295  1  0.99456600  0.60316600  0.86790300  1
  C  296  1  0.99548500  0.61134900  0.84689700  1
  C  297  1  0.00393600  0.59895400  0.82973300  1
  C  298  1  0.01134700  0.57791300  0.83389500  1
  C  299  1  0.01044700  0.56943700  0.85462700  1
  C  300  1  0.00242300  0.58229600  0.87132600  1
  C  309  1  0.72995400  0.85788600  0.87085800  1
  C  310  1  0.70605000  0.86230900  0.87410300  1
  C  311  1  0.69002200  0.84625300  0.87909600  1
  C  312  1  0.69767500  0.82508100  0.88080100  1
  C  313  1  0.72150900  0.81978600  0.87748600  1
  C  314  1  0.73743700  0.83636600  0.87231600  1
  C  317  1  0.74402300  0.87479100  0.86254300  1
  C  318  1  0.74456500  0.89541800  0.87180600  1
  C  319  1  0.75352800  0.91310900  0.86054100  1
  C  320  1  0.76303200  0.90975700  0.84014100  1
  C  321  1  0.76162500  0.88971100  0.83025400  1
  C  322  1  0.75248300  0.87244200  0.84169400  1
  C  331  1  0.22993600  0.62240500  0.13260900  1
  C  332  1  0.20603300  0.61797300  0.12936800  1
  C  333  1  0.18999500  0.63402200  0.12437900  1
  C  334  1  0.19763700  0.65519800  0.12267400  1
  C  335  1  0.22147500  0.66049900  0.12596500  1
  C  336  1  0.23740900  0.64392500  0.13114800  1
  C  339  1  0.24401700  0.60550500  0.14091600  1
  C  340  1  0.24456700  0.58488300  0.13164700  1
  C  341  1  0.25356700  0.56719600  0.14288700  1
  C  342  1  0.26302700  0.57054100  0.16330900  1
  C  343  1  0.26159600  0.59058400  0.17321200  1
  C  344  1  0.25249600  0.60786000  0.16175600  1
  C  353  1  0.47998100  0.87420300  0.38510200  1
  C  354  1  0.45598900  0.87126700  0.38087400  1
  C  355  1  0.44002600  0.86653300  0.39704300  1
  C  356  1  0.44778200  0.86522000  0.41817300  1
  C  357  1  0.47180000  0.86768000  0.42329300  1
  C  358  1  0.48766200  0.87250200  0.40653800  1
  C  361  1  0.49416800  0.88205400  0.36805000  1
  C  362  1  0.49421700  0.87280900  0.34742000  1
  C  363  1  0.50348000  0.88379200  0.32968800  1
  C  364  1  0.51362600  0.90396700  0.33296700  1
  C  365  1  0.51263400  0.91395300  0.35297600  1
  C  366  1  0.50328700  0.90271500  0.37029200  1
  C  375  1  0.97995200  0.60603500  0.61839200  1
  C  376  1  0.95596500  0.60900100  0.62262500  1
  C  377  1  0.94001400  0.61374400  0.60644800  1
  C  378  1  0.94778100  0.61505700  0.58532100  1
  C  379  1  0.97179700  0.61258000  0.58020400  1
  C  380  1  0.98765200  0.60774900  0.59696300  1
  C  383  1  0.99413300  0.59817100  0.63545200  1
  C  384  1  0.99418500  0.60743800  0.65606900  1
  C  385  1  0.00344000  0.59643600  0.67379500  1
  C  386  1  0.01359300  0.57626200  0.67052600  1
  C  387  1  0.01259900  0.56629200  0.65050900  1
  C  388  1  0.00323300  0.57750800  0.63319100  1
  C  397  1  0.73071000  0.85654800  0.63188300  1
  C  398  1  0.70681100  0.86114300  0.62886000  1
  C  399  1  0.69062500  0.84523600  0.62376900  1
  C  400  1  0.69810100  0.82402600  0.62204200  1
  C  401  1  0.72203200  0.81859300  0.62452100  1
  C  402  1  0.73810100  0.83506800  0.62971000  1
  C  405  1  0.74470800  0.87298000  0.64118800  1
  C  406  1  0.74529000  0.89414100  0.63332100  1
  C  407  1  0.75394600  0.91119000  0.64578300  1
  C  408  1  0.76197600  0.90673000  0.66656000  1
  C  409  1  0.76152400  0.88583000  0.67469200  1
  C  410  1  0.75326400  0.86927400  0.66176100  1
  C  419  1  0.23071700  0.62374500  0.37157500  1
  C  420  1  0.20681700  0.61914500  0.37458800  1
  C  421  1  0.19062400  0.63504900  0.37966200  1
  C  422  1  0.19809200  0.65626200  0.38139000  1
  C  423  1  0.22202600  0.66169800  0.37894100  1
  C  424  1  0.23809900  0.64522900  0.37374600  1
  C  427  1  0.24472100  0.60731300  0.36227800  1
  C  428  1  0.24530600  0.58615500  0.37015100  1
  C  429  1  0.25396800  0.56910800  0.35769400  1
  C  430  1  0.26197000  0.57355100  0.33690600  1
  C  431  1  0.26150000  0.59445600  0.32877000  1
  C  432  1  0.25329500  0.61102200  0.34171100  1
  C  441  1  0.98100400  0.60759300  0.38409100  1
  C  442  1  0.00490400  0.61093800  0.37972800  1
  C  443  1  0.02087000  0.61612000  0.39576300  1
  C  444  1  0.01317100  0.61784000  0.41690000  1
  C  445  1  0.98934700  0.61442600  0.42217700  1
  C  446  1  0.97348000  0.60914600  0.40558500  1
  C  449  1  0.96691000  0.59934000  0.36715200  1
  C  450  1  0.96667100  0.60836200  0.34642100  1
  C  451  1  0.95751200  0.59709100  0.32882400  1
  C  452  1  0.94756600  0.57687900  0.33235400  1
  C  453  1  0.94868600  0.56714700  0.35248000  1
  C  454  1  0.95801600  0.57862500  0.36964200  1
  C  463  1  0.48102400  0.87274900  0.61940000  1
  C  464  1  0.50492500  0.86938000  0.62374500  1
  C  465  1  0.52086000  0.86418800  0.60768800  1
  C  466  1  0.51311800  0.86245600  0.58656600  1
  C  467  1  0.48928700  0.86587100  0.58131500  1
  C  468  1  0.47344900  0.87116800  0.59792300  1
  C  471  1  0.46694900  0.88100700  0.63635800  1
  C  472  1  0.46672200  0.87195200  0.65707300  1
  C  473  1  0.45756700  0.88322800  0.67466500  1
  C  474  1  0.44759700  0.90343300  0.67115400  1
  C  475  1  0.44870600  0.91317700  0.65103200  1
  C  476  1  0.45806600  0.90172200  0.63386700  1
  C  485  1  0.73027700  0.62265000  0.63055200  1
  C  486  1  0.75408700  0.61787800  0.62721200  1
  C  487  1  0.77031400  0.63362100  0.62172400  1
  C  488  1  0.76292700  0.65483200  0.61953100  1
  C  489  1  0.73918300  0.66046800  0.62282700  1
  C  490  1  0.72307100  0.64419100  0.62845200  1
  C  493  1  0.71633200  0.60635300  0.64017400  1
  C  494  1  0.71556700  0.58512500  0.63249000  1
  C  495  1  0.70693400  0.56821700  0.64514900  1
  C  496  1  0.69899800  0.57289100  0.66590500  1
  C  497  1  0.69959000  0.59386200  0.67384400  1
  C  498  1  0.70794400  0.61026300  0.66076900  1
  C  507  1  0.23028700  0.85763000  0.37291300  1
  C  508  1  0.25409500  0.86240400  0.37625700  1
  C  509  1  0.27032900  0.84666400  0.38173200  1
  C  510  1  0.26294900  0.82545000  0.38391400  1
  C  511  1  0.23920000  0.81981400  0.38063800  1
  C  512  1  0.22308800  0.83608600  0.37500200  1
  C  515  1  0.21633500  0.87393200  0.36330900  1
  C  516  1  0.21556300  0.89514900  0.37101900  1
  C  517  1  0.20691000  0.91206800  0.35838600  1
  C  518  1  0.19901600  0.90742200  0.33761100  1
  C  519  1  0.19962700  0.88645700  0.32964200  1
  C  520  1  0.20793900  0.87003800  0.34271600  1
  C  529  1  0.47995400  0.11099100  0.61799500  1
  C  530  1  0.50395000  0.11359700  0.62244300  1
  C  531  1  0.52011200  0.11865200  0.60652400  1
  C  532  1  0.51253400  0.12061900  0.58538500  1
  C  533  1  0.48853300  0.11851300  0.58007600  1
  C  534  1  0.47246900  0.11348500  0.59658700  1
  C  537  1  0.46579500  0.10189100  0.63443800  1
  C  538  1  0.46589400  0.10931800  0.65576600  1
  C  539  1  0.45769200  0.09648100  0.67269000  1
  C  540  1  0.44839900  0.07619800  0.66788100  1
  C  541  1  0.44813100  0.06848200  0.64684900  1
  C  542  1  0.45659200  0.08155600  0.63048900  1
  C  551  1  0.97999400  0.36930900  0.38547500  1
  C  552  1  0.00398200  0.36667500  0.38101600  1
  C  553  1  0.02013300  0.36162000  0.39694500  1
  C  554  1  0.01254700  0.35965800  0.41808200  1
  C  555  1  0.98854700  0.36177900  0.42338600  1
  C  556  1  0.97248400  0.36680500  0.40687300  1
  C  559  1  0.96583600  0.37841800  0.36902500  1
  C  560  1  0.96592800  0.37095900  0.34771100  1
  C  561  1  0.95773000  0.38380300  0.33079300  1
  C  562  1  0.94843100  0.40408800  0.33559800  1
  C  563  1  0.94817200  0.41182100  0.35662700  1
  C  564  1  0.95666100  0.39875600  0.37298300  1
  C  573  1  0.23051900  0.12365700  0.36998200  1
  C  574  1  0.25447300  0.11926200  0.37299400  1
  C  575  1  0.27048100  0.13525100  0.37825900  1
  C  576  1  0.26281200  0.15639900  0.38003200  1
  C  577  1  0.23884300  0.16166800  0.37752200  1
  C  578  1  0.22293300  0.14508300  0.37227000  1
  C  581  1  0.21664900  0.10712000  0.36065000  1
  C  582  1  0.21666500  0.08580000  0.36817500  1
  C  583  1  0.20869400  0.06880800  0.35530000  1
  C  584  1  0.19957700  0.07353000  0.33495900  1
  C  585  1  0.19937600  0.09455000  0.32718500  1
  C  586  1  0.20772100  0.11098900  0.34022300  1
  C  595  1  0.73051000  0.35661400  0.63352600  1
  C  596  1  0.75446100  0.36101600  0.63052400  1
  C  597  1  0.77047800  0.34503000  0.62527000  1
  C  598  1  0.76281800  0.32388000  0.62349400  1
  C  599  1  0.73884600  0.31860600  0.62597300  1
  C  600  1  0.72293200  0.33518600  0.63123700  1
  C  603  1  0.71662900  0.37314800  0.64285200  1
  C  604  1  0.71664100  0.39446700  0.63532100  1
  C  605  1  0.70865600  0.41146000  0.64818600  1
  C  606  1  0.69956900  0.40674500  0.66853900  1
  C  607  1  0.69938500  0.38572300  0.67631800  1
  C  608  1  0.70768500  0.36927600  0.66327100  1
  C  617  1  0.98058800  0.36801800  0.61904800  1
  C  618  1  0.95666400  0.36513000  0.62366200  1
  C  619  1  0.94046200  0.35968900  0.60790200  1
  C  620  1  0.94794700  0.35724200  0.58677000  1
  C  621  1  0.97178500  0.36015300  0.58126100  1
  C  622  1  0.98790000  0.36559500  0.59758100  1
  C  625  1  0.99471300  0.37740200  0.63536400  1
  C  626  1  0.99480000  0.37011100  0.65674100  1
  C  627  1  0.00301200  0.38310300  0.67354200  1
  C  628  1  0.01223700  0.40336500  0.66854600  1
  C  629  1  0.01235600  0.41094300  0.64746300  1
  C  630  1  0.00376300  0.39776100  0.63124400  1
  C  639  1  0.48057600  0.11223000  0.38442100  1
  C  640  1  0.45665800  0.11514300  0.37981400  1
  C  641  1  0.44048200  0.12059900  0.39559200  1
  C  642  1  0.44800400  0.12306000  0.41671000  1
  C  643  1  0.47184500  0.12014900  0.42220000  1
  C  644  1  0.48793900  0.11468500  0.40587100  1
  C  647  1  0.49468700  0.10282600  0.36809600  1
  C  648  1  0.49477000  0.11013200  0.34672500  1
  C  649  1  0.50297800  0.09712400  0.32993600  1
  C  650  1  0.51221400  0.07686600  0.33493700  1
  C  651  1  0.51233700  0.06929300  0.35602500  1
  C  652  1  0.50372100  0.08246900  0.37223500  1
  C  661  1  0.23004200  0.35767100  0.37135400  1
  C  662  1  0.20616700  0.36219900  0.37468500  1
  C  663  1  0.19016400  0.34634800  0.38037300  1
  C  664  1  0.19779300  0.32521800  0.38263400  1
  C  665  1  0.22158000  0.31978200  0.37927500  1
  C  666  1  0.23749400  0.33619500  0.37357100  1
  C  669  1  0.24381900  0.37409200  0.36169000  1
  C  670  1  0.24396100  0.39547900  0.36903400  1
  C  671  1  0.25189500  0.41233500  0.35596400  1
  C  672  1  0.26092500  0.40739900  0.33564400  1
  C  673  1  0.26100400  0.38631200  0.32805600  1
  C  674  1  0.25257300  0.37002500  0.34123700  1
  C  683  1  0.73002200  0.12262300  0.63214000  1
  C  684  1  0.70614900  0.11809000  0.62880600  1
  C  685  1  0.69013700  0.13393600  0.62312600  1
  C  686  1  0.69776000  0.15507000  0.62087000  1
  C  687  1  0.72155300  0.16050700  0.62420500  1
  C  688  1  0.73746500  0.14410000  0.62992700  1
  C  691  1  0.74380500  0.10620200  0.64179500  1
  C  692  1  0.74395100  0.08481900  0.63444100  1
  C  693  1  0.75190000  0.06795700  0.64749600  1
  C  694  1  0.76089600  0.07288000  0.66783200  1
  C  695  1  0.76096300  0.09396800  0.67542900  1
  C  696  1  0.75257200  0.11026600  0.66224300  1
  C  705  1  0.00281700  0.37384500  0.80838200  1
  C  706  1  0.98079600  0.37162400  0.79850400  1
  C  707  1  0.97840000  0.36893100  0.77628800  1
  C  708  1  0.99876600  0.36898600  0.76318500  1
  C  709  1  0.02082500  0.37019500  0.77330100  1
  C  710  1  0.02282300  0.37242800  0.79537400  1
  C  713  1  0.99799400  0.37062800  0.74045100  1
  C  714  1  0.98504700  0.38702500  0.73068300  1
  C  715  1  0.98570000  0.39021200  0.70865200  1
  C  716  1  0.99980200  0.37748000  0.69537100  1
  C  717  1  0.01256700  0.36090700  0.70496500  1
  C  718  1  0.01173500  0.35762000  0.72706600  1
  C  727  1  0.50278800  0.10639600  0.19508900  1
  C  728  1  0.48077000  0.10863600  0.20497100  1
  C  729  1  0.47837700  0.11131100  0.22718900  1
  C  730  1  0.49875000  0.11123600  0.24028500  1
  C  731  1  0.52080700  0.11004300  0.23017100  1
  C  732  1  0.52279600  0.10778800  0.20810200  1
  C  735  1  0.49797900  0.10959600  0.26302100  1
  C  736  1  0.48502800  0.09320000  0.27278900  1
  C  737  1  0.48570100  0.09000000  0.29481700  1
  C  738  1  0.49978100  0.10274400  0.30810400  1
  C  739  1  0.51256700  0.11930200  0.29850500  1
  C  740  1  0.51171600  0.12260700  0.27640700  1
  C  749  1  0.25384900  0.43299000  0.13312600  1
  C  750  1  0.23180500  0.44263600  0.13014400  1
  C  751  1  0.22929100  0.46478100  0.12690800  1
  C  752  1  0.24953100  0.47805000  0.12727900  1
  C  753  1  0.27164600  0.46813400  0.12915200  1
  C  754  1  0.27377600  0.44611300  0.13183700  1
  C  757  1  0.24844600  0.50079900  0.12875200  1
  C  758  1  0.23463600  0.51043000  0.14463400  1
  C  759  1  0.23516900  0.53242700  0.14807200  1
  C  760  1  0.24997900  0.54578800  0.13610800  1
  C  761  1  0.26365100  0.53637800  0.12006500  1
  C  762  1  0.26287700  0.51430200  0.11648100  1
  C  771  1  0.75387600  0.04729100  0.87038100  1
  C  772  1  0.73182700  0.03765700  0.87335900  1
  C  773  1  0.72930000  0.01551400  0.87659400  1
  C  774  1  0.74953000  0.00223300  0.87624900  1
  C  775  1  0.77165300  0.01213900  0.87435500  1
  C  776  1  0.77380000  0.03416400  0.87168700  1
  C  779  1  0.74844900  0.97948900  0.87472600  1
  C  780  1  0.73465600  0.96988700  0.85881600  1
  C  781  1  0.73516800  0.94789200  0.85536300  1
  C  782  1  0.74995300  0.93451600  0.86733400  1
  C  783  1  0.76357700  0.94388900  0.88343400  1
  C  784  1  0.76281500  0.96596500  0.88703500  1
  C  793  1  0.45821100  0.10688600  0.80744400  1
  C  794  1  0.48020800  0.10905600  0.79751100  1
  C  795  1  0.48255600  0.11154200  0.77526700  1
  C  796  1  0.46216200  0.11133200  0.76220100  1
  C  797  1  0.44012500  0.11016700  0.77236100  1
  C  798  1  0.43817500  0.10812900  0.79445600  1
  C  801  1  0.46289200  0.10950000  0.73948100  1
  C  802  1  0.47581900  0.09302200  0.72982500  1
  C  803  1  0.47511300  0.08964900  0.70782200  1
  C  804  1  0.46097900  0.10227100  0.69446700  1
  C  805  1  0.44825200  0.11893800  0.70394100  1
  C  806  1  0.44913100  0.12240500  0.72601400  1
  C  815  1  0.95822600  0.37342600  0.19603100  1
  C  816  1  0.98021900  0.37122000  0.20596700  1
  C  817  1  0.98256000  0.36874100  0.22821100  1
  C  818  1  0.96216500  0.36897800  0.24127200  1
  C  819  1  0.94012800  0.37014400  0.23111400  1
  C  820  1  0.93818800  0.37221300  0.20902300  1
  C  823  1  0.96289500  0.37079700  0.26399400  1
  C  824  1  0.97584200  0.38725900  0.27365700  1
  C  825  1  0.97512200  0.39063400  0.29565800  1
  C  826  1  0.96100400  0.37800200  0.30901900  1
  C  827  1  0.94822700  0.36137800  0.29952700  1
  C  828  1  0.94911900  0.35790000  0.27745700  1
  C  837  1  0.20710200  0.04623400  0.13267900  1
  C  838  1  0.22911400  0.03652800  0.12970100  1
  C  839  1  0.23157500  0.01435200  0.12665200  1
  C  840  1  0.21131000  0.00111900  0.12720800  1
  C  841  1  0.18922200  0.01108300  0.12908700  1
  C  842  1  0.18714300  0.03313100  0.13159200  1
  C  845  1  0.21235600  0.97837900  0.12884000  1
  C  846  1  0.22619800  0.96883200  0.14475100  1
  C  847  1  0.22561300  0.94686100  0.14835300  1
  C  848  1  0.21073100  0.93344700  0.13652300  1
  C  849  1  0.19702200  0.94277300  0.12045600  1
  C  850  1  0.19784700  0.96481900  0.11670800  1
  C  859  1  0.70710500  0.43403500  0.87084200  1
  C  860  1  0.72912400  0.44372800  0.87381300  1
  C  861  1  0.73159800  0.46590300  0.87685600  1
  C  862  1  0.71134400  0.47914900  0.87633100  1
  C  863  1  0.68925000  0.46919400  0.87443500  1
  C  864  1  0.68715300  0.44714400  0.87195000  1
  C  867  1  0.71238700  0.50188200  0.87464700  1
  C  868  1  0.72620800  0.51139800  0.85870200  1
  C  869  1  0.72564300  0.53336500  0.85508400  1
  C  870  1  0.71079200  0.54679500  0.86692500  1
  C  871  1  0.69713800  0.53751100  0.88305500  1
  C  872  1  0.69794900  0.51546400  0.88682200  1
  C  881  1  0.95821400  0.60544800  0.19440800  1
  C  882  1  0.98014000  0.60871700  0.20416100  1
  C  883  1  0.98248900  0.61175900  0.22633400  1
  C  884  1  0.96219100  0.61103000  0.23950900  1
  C  885  1  0.94018900  0.60862100  0.22950900  1
  C  886  1  0.93822200  0.60603800  0.20748100  1
  C  889  1  0.96310800  0.60991800  0.26226400  1
  C  890  1  0.97695700  0.59430100  0.27228200  1
  C  891  1  0.97631000  0.59132400  0.29433200  1
  C  892  1  0.96136300  0.60351500  0.30735700  1
  C  893  1  0.94766400  0.61931500  0.29755100  1
  C  894  1  0.94853900  0.62242400  0.27542300  1
  C  903  1  0.45823800  0.87488300  0.80909200  1
  C  904  1  0.48015700  0.87157400  0.79933800  1
  C  905  1  0.48249700  0.86854200  0.77716300  1
  C  906  1  0.46219700  0.86931200  0.76399400  1
  C  907  1  0.44019700  0.87173100  0.77399300  1
  C  908  1  0.43824400  0.87433200  0.79602000  1
  C  911  1  0.46311200  0.87041200  0.74123600  1
  C  912  1  0.47699800  0.88599600  0.73120900  1
  C  913  1  0.47633200  0.88897600  0.70916000  1
  C  914  1  0.46140200  0.87677300  0.69612600  1
  C  915  1  0.44762500  0.86104800  0.70595900  1
  C  916  1  0.44851600  0.85792400  0.72808400  1
  C  925  1  0.50244700  0.87438600  0.19534700  1
  C  926  1  0.48054100  0.87118800  0.20516400  1
  C  927  1  0.47824200  0.86833500  0.22736800  1
  C  928  1  0.49856800  0.86921600  0.24050000  1
  C  929  1  0.52054900  0.87153100  0.23044100  1
  C  930  1  0.52246200  0.87394700  0.20839100  1
  C  933  1  0.49768700  0.87044500  0.26325200  1
  C  934  1  0.48381400  0.88609200  0.27320100  1
  C  935  1  0.48454100  0.88923800  0.29522800  1
  C  936  1  0.49953100  0.87714300  0.30830600  1
  C  937  1  0.51329600  0.86135800  0.29855900  1
  C  938  1  0.51235200  0.85808400  0.27646000  1
  C  947  1  0.00242500  0.60589300  0.80813000  1
  C  948  1  0.98052100  0.60910500  0.79831400  1
  C  949  1  0.97822400  0.61196000  0.77611200  1
  C  950  1  0.99854600  0.61109100  0.76297700  1
  C  951  1  0.02052600  0.60874300  0.77303600  1
  C  952  1  0.02244200  0.60633700  0.79508800  1
  C  955  1  0.99767600  0.60981200  0.74022800  1
  C  956  1  0.98380100  0.59415300  0.73030200  1
  C  957  1  0.98451000  0.59099600  0.70827700  1
  C  958  1  0.99949100  0.60308000  0.69518000  1
  C  959  1  0.01322900  0.61890200  0.70490500  1
  C  960  1  0.01229900  0.62219300  0.72700300  1
  C  969  1  0.75215500  0.93291100  0.63918600  1
  C  970  1  0.73015100  0.94268900  0.63642100  1
  C  971  1  0.72770000  0.96493200  0.63379300  1
  C  972  1  0.74798100  0.97814500  0.63443000  1
  C  973  1  0.77004300  0.96813800  0.63635100  1
  C  974  1  0.77210300  0.94605000  0.63853500  1
  C  977  1  0.74706300  0.00091600  0.63568600  1
  C  978  1  0.73352900  0.01091700  0.65153100  1
  C  979  1  0.73406500  0.03301400  0.65440900  1
  C  980  1  0.74862200  0.04611700  0.64191200  1
  C  981  1  0.76194800  0.03629900  0.62585500  1
  C  982  1  0.76121800  0.01413300  0.62286700  1
  C  991  1  0.25217100  0.54738200  0.36428100  1
  C  992  1  0.23016600  0.53760700  0.36705300  1
  C  993  1  0.22771100  0.51536300  0.36966300  1
  C  994  1  0.24799200  0.50215100  0.36902000  1
  C  995  1  0.27005800  0.51215200  0.36711900  1
  C  996  1  0.27211600  0.53423800  0.36492100  1
  C  999  1  0.24707300  0.47937800  0.36777000  1
  C  1000  1  0.23354500  0.46937900  0.35191700  1
  C  1001  1  0.23410600  0.44728500  0.34902700  1
  C  1002  1  0.24863300  0.43417800  0.36154800  1
  C  1003  1  0.26196300  0.44399800  0.37760000  1
  C  1004  1  0.26121200  0.46616000  0.38060400  1
  C  1013  1  0.70864800  0.54643300  0.63875300  1
  C  1014  1  0.73063400  0.53659800  0.63606100  1
  C  1015  1  0.73304500  0.51432800  0.63363500  1
  C  1016  1  0.71274000  0.50115500  0.63442800  1
  C  1017  1  0.69069400  0.51120900  0.63625700  1
  C  1018  1  0.68867800  0.53331600  0.63826000  1
  C  1021  1  0.71363300  0.47839100  0.63583100  1
  C  1022  1  0.72718100  0.46848900  0.65173000  1
  C  1023  1  0.72658300  0.44641700  0.65479300  1
  C  1024  1  0.71200100  0.43323800  0.64240000  1
  C  1025  1  0.69863800  0.44296100  0.62631300  1
  C  1026  1  0.69941500  0.46509900  0.62314600  1
  C  1035  1  0.20863800  0.93385000  0.36478400  1
  C  1036  1  0.23062900  0.94367700  0.36747000  1
  C  1037  1  0.23304900  0.96594600  0.36989500  1
  C  1038  1  0.21274800  0.97912700  0.36913100  1
  C  1039  1  0.19070100  0.96907900  0.36729100  1
  C  1040  1  0.18867400  0.94697000  0.36529700  1
  C  1043  1  0.21363500  0.00188700  0.36768600  1
  C  1044  1  0.22716400  0.01176700  0.35176100  1
  C  1045  1  0.22658300  0.03383700  0.34868700  1
  C  1046  1  0.21202300  0.04702800  0.36108900  1
  C  1047  1  0.19871000  0.03733200  0.37722700  1
  C  1048  1  0.19947700  0.01519500  0.38040600  1
  C  1057  1  0.01236700  0.43566600  0.85362800  1
  C  1058  1  0.99824700  0.44859300  0.84062900  1
  C  1059  1  0.99921500  0.47088700  0.84157700  1
  C  1060  1  0.01433100  0.48038300  0.85674300  1
  C  1061  1  0.02831600  0.46754000  0.86994600  1
  C  1062  1  0.02729500  0.44538700  0.86845300  1
  C  1065  1  0.01506800  0.50255900  0.85951900  1
  C  1066  1  0.99499000  0.51333200  0.86672600  1
  C  1067  1  0.99397500  0.53548800  0.86591700  1
  C  1068  1  0.01311100  0.54736000  0.85817900  1
  C  1069  1  0.03368700  0.53654500  0.85216400  1
  C  1070  1  0.03464700  0.51431900  0.85273100  1
  C  1079  1  0.51235100  0.04458700  0.14983200  1
  C  1080  1  0.49823100  0.03165400  0.16282400  1
  C  1081  1  0.49920600  0.00936000  0.16187100  1
  C  1082  1  0.51432300  0.99987100  0.14670300  1
  C  1083  1  0.52831000  0.01272100  0.13350600  1
  C  1084  1  0.52728400  0.03487300  0.13500800  1
  C  1087  1  0.51507100  0.97769400  0.14392700  1
  C  1088  1  0.49499800  0.96691400  0.13671800  1
  C  1089  1  0.49398000  0.94475900  0.13758000  1
  C  1090  1  0.51313500  0.93289400  0.14528400  1
  C  1091  1  0.53369900  0.94372200  0.15130900  1
  C  1092  1  0.53466500  0.96594600  0.15070100  1
  C  1101  1  0.26454400  0.38760400  0.19490000  1
  C  1102  1  0.25109200  0.40077600  0.20823100  1
  C  1103  1  0.25238100  0.39940600  0.23046800  1
  C  1104  1  0.26718000  0.38369600  0.23948500  1
  C  1105  1  0.28056100  0.37036500  0.22627100  1
  C  1106  1  0.27920200  0.37226200  0.20418300  1
  C  1109  1  0.26788800  0.38037300  0.26155100  1
  C  1110  1  0.24783800  0.37258900  0.27195000  1
  C  1111  1  0.24623600  0.37356500  0.29404900  1
  C  1112  1  0.26475200  0.38200200  0.30625100  1
  C  1113  1  0.28537000  0.38853700  0.29580300  1
  C  1114  1  0.28690500  0.38784800  0.27362800  1
  C  1123  1  0.76453600  0.09262900  0.80858200  1
  C  1124  1  0.75108500  0.07944500  0.79526100  1
  C  1125  1  0.75237100  0.08080100  0.77302500  1
  C  1126  1  0.76717100  0.09650300  0.76399300  1
  C  1127  1  0.78055300  0.10984200  0.77719900  1
  C  1128  1  0.77919600  0.10796300  0.79928900  1
  C  1131  1  0.76785900  0.09983000  0.74192700  1
  C  1132  1  0.74779900  0.10761600  0.73154700  1
  C  1133  1  0.74619500  0.10667200  0.70944600  1
  C  1134  1  0.76470900  0.09823500  0.69724300  1
  C  1135  1  0.78534900  0.09172300  0.70767000  1
  C  1136  1  0.78689700  0.09240700  0.72984700  1
  C  1145  1  0.44890700  0.04548800  0.85331200  1
  C  1146  1  0.46299200  0.03240300  0.84044400  1
  C  1147  1  0.46187000  0.01012200  0.84153600  1
  C  1148  1  0.44662200  0.00080900  0.85670700  1
  C  1149  1  0.43268500  0.01381500  0.86979400  1
  C  1150  1  0.43386300  0.03595100  0.86816100  1
  C  1153  1  0.44571300  0.97865700  0.85961700  1
  C  1154  1  0.46567700  0.96782900  0.86699500  1
  C  1155  1  0.46654800  0.94566500  0.86634400  1
  C  1156  1  0.44737500  0.93383300  0.85861200  1
  C  1157  1  0.42691600  0.94472000  0.85240100  1
  C  1158  1  0.42610200  0.96695500  0.85280500  1
  C  1167  1  0.94892400  0.43482900  0.15017200  1
  C  1168  1  0.96301700  0.44791400  0.16303400  1
  C  1169  1  0.96189000  0.47019500  0.16194700  1
  C  1170  1  0.94663300  0.47950800  0.14678400  1
  C  1171  1  0.93269000  0.46650400  0.13370200  1
  C  1172  1  0.93387100  0.44436700  0.13533300  1
  C  1175  1  0.94571600  0.50166300  0.14388500  1
  C  1176  1  0.96567300  0.51249800  0.13650100  1
  C  1177  1  0.96654800  0.53466100  0.13720600  1
  C  1178  1  0.94736200  0.54648400  0.14491700  1
  C  1179  1  0.92691500  0.53558800  0.15114100  1
  C  1180  1  0.92609400  0.51335400  0.15069300  1
  C  1189  1  0.19666800  0.09226700  0.19402300  1
  C  1190  1  0.21008500  0.07923600  0.20751900  1
  C  1191  1  0.20864300  0.08076500  0.22973600  1
  C  1192  1  0.19370900  0.09648200  0.23855900  1
  C  1193  1  0.18038300  0.10968800  0.22517600  1
  C  1194  1  0.18190000  0.10763900  0.20311000  1
  C  1197  1  0.19283100  0.09994900  0.26059500  1
  C  1198  1  0.21275500  0.10793500  0.27103500  1
  C  1199  1  0.21423300  0.10711800  0.29314700  1
  C  1200  1  0.19571200  0.09865100  0.30532300  1
  C  1201  1  0.17521300  0.09189700  0.29482200  1
  C  1202  1  0.17380700  0.09242100  0.27263300  1
  C  1211  1  0.69669500  0.38804500  0.80947700  1
  C  1212  1  0.71010300  0.40108900  0.79599000  1
  C  1213  1  0.70865500  0.39957400  0.77377100  1
  C  1214  1  0.69371900  0.38386300  0.76493900  1
  C  1215  1  0.68039600  0.37064900  0.77831800  1
  C  1216  1  0.68192100  0.37267900  0.80038400  1
  C  1219  1  0.69284900  0.38039200  0.74290200  1
  C  1220  1  0.71278000  0.37240600  0.73247500  1
  C  1221  1  0.71425100  0.37319300  0.71036300  1
  C  1222  1  0.69572800  0.38166200  0.69819000  1
  C  1223  1  0.67521000  0.38839000  0.70867900  1
  C  1224  1  0.67380000  0.38787100  0.73086900  1
  C  1233  1  0.69602400  0.59276500  0.80712900  1
  C  1234  1  0.70930500  0.57939700  0.79383300  1
  C  1235  1  0.70816200  0.58075000  0.77159500  1
  C  1236  1  0.69371700  0.59667800  0.76250000  1
  C  1237  1  0.68052400  0.61022500  0.77565700  1
  C  1238  1  0.68173300  0.60833600  0.79776000  1
  C  1241  1  0.69315100  0.59991500  0.74041300  1
  C  1242  1  0.71343000  0.60713400  0.72996600  1
  C  1243  1  0.71498500  0.60606200  0.70786500  1
  C  1244  1  0.69623000  0.59798300  0.69573100  1
  C  1245  1  0.67541800  0.59202500  0.70620400  1
  C  1246  1  0.67391500  0.59284500  0.72837800  1
  C  1255  1  0.19604400  0.88752800  0.19633900  1
  C  1256  1  0.20935500  0.90089500  0.20961100  1
  C  1257  1  0.20822800  0.89956600  0.23185200  1
  C  1258  1  0.19376500  0.88366600  0.24097400  1
  C  1259  1  0.18053900  0.87012400  0.22784000  1
  C  1260  1  0.18173400  0.87198400  0.20573300  1
  C  1263  1  0.19321100  0.88045000  0.26306500  1
  C  1264  1  0.21349400  0.87323300  0.27351300  1
  C  1265  1  0.21505900  0.87435100  0.29560900  1
  C  1266  1  0.19628500  0.88238500  0.30774400  1
  C  1267  1  0.17547700  0.88834900  0.29726900  1
  C  1268  1  0.17395900  0.88749200  0.27509900  1
  C  1277  1  0.76432400  0.88785300  0.80798600  1
  C  1278  1  0.75105000  0.90107000  0.79453800  1
  C  1279  1  0.75232900  0.89956300  0.77231500  1
  C  1280  1  0.76690700  0.88362900  0.76340400  1
  C  1281  1  0.78006700  0.87020900  0.77671900  1
  C  1282  1  0.77871700  0.87224800  0.79880200  1
  C  1285  1  0.76765300  0.88026700  0.74134200  1
  C  1286  1  0.74749300  0.87284300  0.73085000  1
  C  1287  1  0.74603400  0.87383300  0.70874000  1
  C  1288  1  0.76480800  0.88191300  0.69662700  1
  C  1289  1  0.78549800  0.88809900  0.70716200  1
  C  1290  1  0.78688400  0.88741900  0.72934600  1
  C  1299  1  0.26431000  0.59241000  0.19548100  1
  C  1300  1  0.25105000  0.57917400  0.20892200  1
  C  1301  1  0.25233400  0.58066700  0.23114600  1
  C  1302  1  0.26690400  0.59659900  0.24006500  1
  C  1303  1  0.28005400  0.61003300  0.22675800  1
  C  1304  1  0.27869800  0.60801200  0.20467300  1
  C  1307  1  0.26763800  0.59996400  0.26213000  1
  C  1308  1  0.24746900  0.60738700  0.27260700  1
  C  1309  1  0.24601400  0.60642400  0.29471800  1
  C  1310  1  0.26478700  0.59834200  0.30682900  1
  C  1311  1  0.28549500  0.59218000  0.29630700  1
  C  1312  1  0.28689000  0.59285800  0.27412400  1
  C  1321  1  0.51593800  0.93619300  0.35477700  1
  C  1322  1  0.50313400  0.94990100  0.34144300  1
  C  1323  1  0.50480800  0.97211700  0.34301900  1
  C  1324  1  0.51935000  0.98077400  0.35910300  1
  C  1325  1  0.53206000  0.96722500  0.37263500  1
  C  1326  1  0.53032100  0.94514400  0.37052300  1
  C  1329  1  0.52014500  0.00281800  0.36267600  1
  C  1330  1  0.50011300  0.01313100  0.37060000  1
  C  1331  1  0.49823400  0.03522300  0.36940500  1
  C  1332  1  0.51639700  0.04751400  0.36046200  1
  C  1333  1  0.53704300  0.03717100  0.35380200  1
  C  1334  1  0.53885300  0.01499100  0.35472600  1
  C  1343  1  0.01590200  0.54405000  0.64870400  1
  C  1344  1  0.00308500  0.53034100  0.66202900  1
  C  1345  1  0.00475600  0.50812500  0.66044900  1
  C  1346  1  0.01931200  0.49946900  0.64437500  1
  C  1347  1  0.03203900  0.51301700  0.63085600  1
  C  1348  1  0.03029900  0.53509900  0.63296800  1
  C  1351  1  0.02011500  0.47742500  0.64080900  1
  C  1352  1  0.00008700  0.46710200  0.63288300  1
  C  1353  1  0.99820500  0.44501400  0.63413800  1
  C  1354  1  0.01639600  0.43272700  0.64303500  1
  C  1355  1  0.03702400  0.44308700  0.64970800  1
  C  1356  1  0.03884600  0.46526400  0.64873800  1
  C  1365  1  0.94541900  0.54493000  0.35455900  1
  C  1366  1  0.95825600  0.53107500  0.34140500  1
  C  1367  1  0.95644900  0.50888000  0.34313500  1
  C  1368  1  0.94174100  0.50040700  0.35919300  1
  C  1369  1  0.92903300  0.51410900  0.37257200  1
  C  1370  1  0.93090900  0.53616600  0.37031200  1
  C  1373  1  0.94072400  0.47839000  0.36286100  1
  C  1374  1  0.96060800  0.46800600  0.37100300  1
  C  1375  1  0.96237100  0.44590300  0.36985700  1
  C  1376  1  0.94419000  0.43365100  0.36088700  1
  C  1377  1  0.92369800  0.44408000  0.35398800  1
  C  1378  1  0.92203000  0.46627300  0.35479600  1
  C  1387  1  0.44540700  0.93538900  0.64895700  1
  C  1388  1  0.45821100  0.94925700  0.66212400  1
  C  1389  1  0.45639200  0.97145100  0.66038500  1
  C  1390  1  0.44170100  0.97991200  0.64430700  1
  C  1391  1  0.42902100  0.96619700  0.63091900  1
  C  1392  1  0.43091400  0.94414200  0.63318600  1
  C  1395  1  0.44068300  0.00192900  0.64061800  1
  C  1396  1  0.46057400  0.01229800  0.63247400  1
  C  1397  1  0.46233000  0.03440300  0.63360000  1
  C  1398  1  0.44414800  0.04665400  0.64257400  1
  C  1399  1  0.42364500  0.03622800  0.64945800  1
  C  1400  1  0.42196600  0.01403600  0.64864600  1
  C  1409  1  0.79446800  0.35158600  0.88169300  1
  C  1410  1  0.80700300  0.35680900  0.86321800  1
  C  1411  1  0.83152300  0.35957400  0.86358000  1
  C  1412  1  0.84335200  0.35724100  0.88324700  1
  C  1413  1  0.83061200  0.35252400  0.90180700  1
  C  1414  1  0.80637300  0.34967100  0.90105000  1
  C  1417  1  0.86785000  0.35891300  0.88514700  1
  C  1418  1  0.87908200  0.37857000  0.88215700  1
  C  1419  1  0.90329700  0.38038100  0.88523700  1
  C  1420  1  0.91646100  0.36260700  0.89162200  1
  C  1421  1  0.90527200  0.34294300  0.89455900  1
  C  1422  1  0.88111900  0.34109700  0.89127600  1
  C  1431  1  0.29444800  0.12869400  0.12178600  1
  C  1432  1  0.30698200  0.12345800  0.14025800  1
  C  1433  1  0.33150400  0.12071400  0.13989600  1
  C  1434  1  0.34333200  0.12304700  0.12022700  1
  C  1435  1  0.33059100  0.12776400  0.10166800  1
  C  1436  1  0.30635300  0.13062600  0.10242800  1
  C  1439  1  0.36783000  0.12137500  0.11832600  1
  C  1440  1  0.37906000  0.10171800  0.12131400  1
  C  1441  1  0.40327000  0.09990200  0.11820700  1
  C  1442  1  0.41644100  0.11768100  0.11185000  1
  C  1443  1  0.40525000  0.13734500  0.10891000  1
  C  1444  1  0.38109900  0.13919300  0.11220200  1
  C  1453  1  0.04455500  0.36114100  0.11294600  1
  C  1454  1  0.05732200  0.37947400  0.11827100  1
  C  1455  1  0.08184600  0.37886400  0.12095400  1
  C  1456  1  0.09344000  0.35908500  0.11844000  1
  C  1457  1  0.08047100  0.34066200  0.11363400  1
  C  1458  1  0.05623200  0.34166800  0.11085300  1
  C  1461  1  0.11793000  0.35697200  0.11993900  1
  C  1462  1  0.12936900  0.35976800  0.13950900  1
  C  1463  1  0.15358700  0.35657200  0.14109900  1
  C  1464  1  0.16655000  0.35031200  0.12317700  1
  C  1465  1  0.15514900  0.34755600  0.10360400  1
  C  1466  1  0.13099400  0.35093500  0.10198500  1
  C  1475  1  0.54457000  0.11914200  0.89048600  1
  C  1476  1  0.55733200  0.10080700  0.88515900  1
  C  1477  1  0.58185300  0.10141700  0.88246400  1
  C  1478  1  0.59344800  0.12119900  0.88495400  1
  C  1479  1  0.58048200  0.13962400  0.88976000  1
  C  1480  1  0.55624400  0.13861900  0.89255300  1
  C  1483  1  0.61793800  0.12330700  0.88346700  1
  C  1484  1  0.62938600  0.12052700  0.86390100  1
  C  1485  1  0.65360700  0.12371100  0.86232500  1
  C  1486  1  0.66655900  0.12996100  0.88025800  1
  C  1487  1  0.65515000  0.13269600  0.89982900  1
  C  1488  1  0.63099400  0.12931500  0.90143600  1
  C  1497  1  0.16604600  0.62902800  0.12291300  1
  C  1498  1  0.15319500  0.62409100  0.14128600  1
  C  1499  1  0.12864500  0.62160000  0.14066300  1
  C  1500  1  0.11713300  0.62391900  0.12084100  1
  C  1501  1  0.13019100  0.62827900  0.10237900  1
  C  1502  1  0.15445500  0.63084800  0.10339000  1
  C  1505  1  0.09262800  0.62282400  0.11872700  1
  C  1506  1  0.08079600  0.60343500  0.12153000  1
  C  1507  1  0.05656200  0.60224500  0.11826900  1
  C  1508  1  0.04398300  0.62037700  0.11191000  1
  C  1509  1  0.05579000  0.63977500  0.10917100  1
  C  1510  1  0.07996000  0.64099900  0.11261900  1
  C  1519  1  0.66607000  0.85124300  0.88056600  1
  C  1520  1  0.65322100  0.85620200  0.86219700  1
  C  1521  1  0.62866800  0.85867200  0.86282100  1
  C  1522  1  0.61715700  0.85634700  0.88264200  1
  C  1523  1  0.63021600  0.85197900  0.90110200  1
  C  1524  1  0.65447900  0.84939900  0.90008800  1
  C  1527  1  0.59265300  0.85744500  0.88475900  1
  C  1528  1  0.58082400  0.87683800  0.88196300  1
  C  1529  1  0.55659700  0.87803400  0.88524800  1
  C  1530  1  0.54400800  0.85989500  0.89157600  1
  C  1531  1  0.55581400  0.84049800  0.89431400  1
  C  1532  1  0.57998200  0.83926900  0.89085700  1
  C  1541  1  0.91656600  0.62184000  0.89027200  1
  C  1542  1  0.90431400  0.60315900  0.88514800  1
  C  1543  1  0.87980700  0.60321000  0.88228500  1
  C  1544  1  0.86769700  0.62277400  0.88443600  1
  C  1545  1  0.88014100  0.64153800  0.88904800  1
  C  1546  1  0.90437400  0.64108900  0.89199500  1
  C  1549  1  0.84318200  0.62435700  0.88275600  1
  C  1550  1  0.83200300  0.62131100  0.86310300  1
  C  1551  1  0.80776200  0.62422600  0.86128200  1
  C  1552  1  0.79452800  0.63043700  0.87905700  1
  C  1553  1  0.80566300  0.63334900  0.89873400  1
  C  1554  1  0.82984200  0.63027100  0.90058100  1
  C  1563  1  0.41655300  0.85844300  0.11325800  1
  C  1564  1  0.40430500  0.87712600  0.11837600  1
  C  1565  1  0.37979700  0.87707300  0.12125100  1
  C  1566  1  0.36769200  0.85750500  0.11913100  1
  C  1567  1  0.38013600  0.83873900  0.11452500  1
  C  1568  1  0.40436700  0.83918800  0.11156900  1
  C  1571  1  0.34317800  0.85592500  0.12079300  1
  C  1572  1  0.33198500  0.85895900  0.14044200  1
  C  1573  1  0.30774000  0.85605300  0.14224400  1
  C  1574  1  0.29452000  0.84984500  0.12445900  1
  C  1575  1  0.30566900  0.84695400  0.10478400  1
  C  1576  1  0.32985000  0.85003700  0.10295300  1
  C  1585  1  0.29426100  0.85190900  0.38277800  1
  C  1586  1  0.30665500  0.85699000  0.36418000  1
  C  1587  1  0.33113600  0.86003700  0.36440800  1
  C  1588  1  0.34307500  0.85813000  0.38406200  1
  C  1589  1  0.33048800  0.85354000  0.40273800  1
  C  1590  1  0.30628300  0.85041900  0.40211700  1
  C  1593  1  0.36755800  0.86003600  0.38582600  1
  C  1594  1  0.37856700  0.87977500  0.38271000  1
  C  1595  1  0.40277900  0.88180700  0.38569800  1
  C  1596  1  0.41615500  0.86417300  0.39210700  1
  C  1597  1  0.40518200  0.84441100  0.39510600  1
  C  1598  1  0.38103600  0.84234600  0.39193600  1
  C  1607  1  0.79424700  0.62837400  0.62068300  1
  C  1608  1  0.80663500  0.62328500  0.63928200  1
  C  1609  1  0.83111700  0.62025400  0.63906100  1
  C  1610  1  0.84306000  0.62215700  0.61940800  1
  C  1611  1  0.83047800  0.62674400  0.60073100  1
  C  1612  1  0.80627500  0.62987400  0.60134700  1
  C  1615  1  0.86754500  0.62024900  0.61764600  1
  C  1616  1  0.87855100  0.60050900  0.62076500  1
  C  1617  1  0.90275900  0.59847100  0.61775700  1
  C  1618  1  0.91614100  0.61611000  0.61137500  1
  C  1619  1  0.90516900  0.63587100  0.60836800  1
  C  1620  1  0.88102500  0.63793900  0.61154400  1
  C  1629  1  0.54481000  0.86248400  0.61263600  1
  C  1630  1  0.55784900  0.88071800  0.61774700  1
  C  1631  1  0.58237900  0.87984900  0.62033200  1
  C  1632  1  0.59368600  0.85992000  0.61793500  1
  C  1633  1  0.58044200  0.84159500  0.61338600  1
  C  1634  1  0.55620400  0.84285300  0.61071700  1
  C  1637  1  0.61815700  0.85755300  0.61923700  1
  C  1638  1  0.62981800  0.86022100  0.63871200  1
  C  1639  1  0.65401100  0.85678700  0.64009300  1
  C  1640  1  0.66673600  0.85042400  0.62206300  1
  C  1641  1  0.65509600  0.84780300  0.60258300  1
  C  1642  1  0.63096200  0.85140000  0.60117200  1
  C  1651  1  0.04481100  0.61782500  0.39078100  1
  C  1652  1  0.05784500  0.59958600  0.38567900  1
  C  1653  1  0.08237200  0.60045300  0.38307800  1
  C  1654  1  0.09367900  0.62038500  0.38544200  1
  C  1655  1  0.08043900  0.63871400  0.38998500  1
  C  1656  1  0.05620200  0.63746100  0.39266400  1
  C  1659  1  0.11815100  0.62274500  0.38415400  1
  C  1660  1  0.12982200  0.62008500  0.36468300  1
  C  1661  1  0.15401900  0.62350400  0.36331700  1
  C  1662  1  0.16673500  0.62986100  0.38135700  1
  C  1663  1  0.15508300  0.63246900  0.40083200  1
  C  1664  1  0.13094800  0.62887600  0.40223200  1
  C  1673  1  0.66617000  0.12890500  0.62186200  1
  C  1674  1  0.65343600  0.12422700  0.64037600  1
  C  1675  1  0.62889000  0.12167600  0.63992100  1
  C  1676  1  0.61725000  0.12368400  0.62013200  1
  C  1677  1  0.63017300  0.12779300  0.60153700  1
  C  1678  1  0.65444000  0.13040300  0.60237600  1
  C  1681  1  0.59273400  0.12259800  0.61818300  1
  C  1682  1  0.58090600  0.10322100  0.62107800  1
  C  1683  1  0.55665300  0.10204200  0.61792600  1
  C  1684  1  0.54404400  0.12017200  0.61159900  1
  C  1685  1  0.55585400  0.13956900  0.60883200  1
  C  1686  1  0.58004500  0.14078200  0.61214600  1
  C  1695  1  0.16619300  0.35137900  0.38163400  1
  C  1696  1  0.15346500  0.35607000  0.36312000  1
  C  1697  1  0.12891700  0.35859900  0.36356900  1
  C  1698  1  0.11727400  0.35659200  0.38335800  1
  C  1699  1  0.13019400  0.35248500  0.40195400  1
  C  1700  1  0.15446000  0.34986600  0.40111500  1
  C  1703  1  0.09275700  0.35767700  0.38530400  1
  C  1704  1  0.08093000  0.37705300  0.38240600  1
  C  1705  1  0.05668000  0.37823600  0.38558200  1
  C  1706  1  0.04406700  0.36009900  0.39187900  1
  C  1707  1  0.05588000  0.34070500  0.39465400  1
  C  1708  1  0.08006900  0.33949000  0.39133200  1
  C  1717  1  0.41650600  0.12146100  0.39050300  1
  C  1718  1  0.40418600  0.10273900  0.38566800  1
  C  1719  1  0.37965900  0.10279800  0.38292800  1
  C  1720  1  0.36760000  0.12240100  0.38491900  1
  C  1721  1  0.38010800  0.14120700  0.38920200  1
  C  1722  1  0.40436000  0.14075500  0.39200900  1
  C  1725  1  0.34307300  0.12399300  0.38347100  1
  C  1726  1  0.33167000  0.12097500  0.36392400  1
  C  1727  1  0.30742200  0.12397500  0.36232500  1
  C  1728  1  0.29438700  0.13022400  0.38021600  1
  C  1729  1  0.30576200  0.13307000  0.39979500  1
  C  1730  1  0.32995300  0.12993200  0.40142000  1
  C  1739  1  0.91649400  0.35882200  0.61302000  1
  C  1740  1  0.90417800  0.37754600  0.61785500  1
  C  1741  1  0.87965300  0.37748600  0.62061000  1
  C  1742  1  0.86759700  0.35787800  0.61864800  1
  C  1743  1  0.88010400  0.33907200  0.61436100  1
  C  1744  1  0.90435400  0.33952500  0.61154200  1
  C  1747  1  0.84307100  0.35628900  0.62008600  1
  C  1748  1  0.83166100  0.35929400  0.63963200  1
  C  1749  1  0.80741000  0.35630400  0.64121800  1
  C  1750  1  0.79438500  0.35006000  0.62332000  1
  C  1751  1  0.80576500  0.34723400  0.60374100  1
  C  1752  1  0.82995500  0.35037500  0.60212600  1
  C  1761  1  0.97832200  0.36542800  0.94513200  1
  C  1762  1  0.98875600  0.38255100  0.95596300  1
  C  1763  1  0.99149400  0.38279300  0.97835300  1
  C  1764  1  0.98220400  0.36580700  0.99077300  1
  C  1765  1  0.97249100  0.34841200  0.97968400  1
  C  1766  1  0.97113200  0.34798800  0.95751300  1
  C  1769  1  0.98180000  0.36533100  0.01366000  1
  C  1770  1  0.97436200  0.38281800  0.02602800  1
  C  1771  1  0.97533500  0.38246700  0.04837100  1
  C  1772  1  0.98288000  0.36423000  0.05938800  1
  C  1773  1  0.98837900  0.34616300  0.04711800  1
  C  1774  1  0.98821500  0.34680800  0.02486700  1
  C  1783  1  0.47831700  0.11483700  0.05835700  1
  C  1784  1  0.48874800  0.09770800  0.04753000  1
  C  1785  1  0.49149000  0.09746100  0.02514100  1
  C  1786  1  0.48222100  0.11445100  0.01271600  1
  C  1787  1  0.47251800  0.13185500  0.02379800  1
  C  1788  1  0.47112500  0.13226900  0.04596600  1
  C  1791  1  0.48184000  0.11492700  0.98982900  1
  C  1792  1  0.47437500  0.09745000  0.97745700  1
  C  1793  1  0.47539200  0.09778800  0.95511600  1
  C  1794  1  0.48296800  0.11601700  0.94411100  1
  C  1795  1  0.48850900  0.13407600  0.95637600  1
  C  1796  1  0.48828900  0.13344400  0.97862700  1
  C  1805  1  0.22827900  0.29662800  0.12510400  1
  C  1806  1  0.23882100  0.28580200  0.14216200  1
  C  1807  1  0.24158300  0.26340900  0.14236100  1
  C  1808  1  0.23223000  0.25104300  0.12538600  1
  C  1809  1  0.22240000  0.26211300  0.10805300  1
  C  1810  1  0.22095800  0.28429100  0.10769700  1
  C  1813  1  0.23184700  0.22818000  0.12490600  1
  C  1814  1  0.22421300  0.21586400  0.14234000  1
  C  1815  1  0.22522700  0.19351700  0.14203200  1
  C  1816  1  0.23297400  0.18250200  0.12388100  1
  C  1817  1  0.23872300  0.19472500  0.10586400  1
  C  1818  1  0.23850100  0.21698800  0.10646300  1
  C  1827  1  0.72826400  0.18366000  0.87836200  1
  C  1828  1  0.73884800  0.19447800  0.86132200  1
  C  1829  1  0.74161300  0.21687100  0.86113200  1
  C  1830  1  0.73223800  0.22923500  0.87809800  1
  C  1831  1  0.72238600  0.21816400  0.89542000  1
  C  1832  1  0.72095900  0.19598400  0.89578400  1
  C  1835  1  0.73185000  0.25209700  0.87858000  1
  C  1836  1  0.72421400  0.26441600  0.86114700  1
  C  1837  1  0.72522400  0.28676300  0.86145600  1
  C  1838  1  0.73302000  0.29775900  0.87959900  1
  C  1839  1  0.73874400  0.28554700  0.89762800  1
  C  1840  1  0.73850300  0.26328400  0.89702600  1
  C  1849  1  0.98234500  0.61932900  0.05815000  1
  C  1850  1  0.97183900  0.60225500  0.04730500  1
  C  1851  1  0.96911700  0.60207600  0.02493700  1
  C  1852  1  0.97848200  0.61909000  0.01262700  1
  C  1853  1  0.98829700  0.63643100  0.02371100  1
  C  1854  1  0.98967900  0.63677900  0.04587100  1
  C  1857  1  0.97892800  0.61957400  0.98979900  1
  C  1858  1  0.98666600  0.60213800  0.97753300  1
  C  1859  1  0.98571800  0.60243200  0.95521100  1
  C  1860  1  0.97788300  0.62055900  0.94419000  1
  C  1861  1  0.97205800  0.63860000  0.95636100  1
  C  1862  1  0.97222500  0.63801000  0.97860300  1
  C  1871  1  0.48235500  0.86095600  0.94532300  1
  C  1872  1  0.47184400  0.87803000  0.95616400  1
  C  1873  1  0.46911600  0.87821400  0.97853000  1
  C  1874  1  0.47846700  0.86119700  0.99084500  1
  C  1875  1  0.48827800  0.84385100  0.97976700  1
  C  1876  1  0.48969700  0.84351400  0.95761000  1
  C  1879  1  0.47888700  0.86071100  0.01367200  1
  C  1880  1  0.48663900  0.87814000  0.02594400  1
  C  1881  1  0.48564400  0.87785300  0.04826300  1
  C  1882  1  0.47779500  0.85972700  0.05927700  1
  C  1883  1  0.47193800  0.84170000  0.04710200  1
  C  1884  1  0.47216000  0.84227800  0.02486100  1
  C  1893  1  0.73231300  0.68363300  0.87717000  1
  C  1894  1  0.72182200  0.69450200  0.86011500  1
  C  1895  1  0.71906100  0.71689800  0.85996200  1
  C  1896  1  0.72840800  0.72923900  0.87696300  1
  C  1897  1  0.73813800  0.71811600  0.89431100  1
  C  1898  1  0.73953900  0.69593500  0.89463800  1
  C  1901  1  0.72890700  0.75211100  0.87743700  1
  C  1902  1  0.73648900  0.76439700  0.85996000  1
  C  1903  1  0.73552600  0.78674900  0.86024000  1
  C  1904  1  0.72791500  0.79781000  0.87840900  1
  C  1905  1  0.72228300  0.78561700  0.89647900  1
  C  1906  1  0.72242700  0.76335200  0.89590200  1
  C  1915  1  0.23234000  0.79662200  0.12630100  1
  C  1916  1  0.22179900  0.78576400  0.14333700  1
  C  1917  1  0.21903300  0.76336900  0.14348100  1
  C  1918  1  0.22840300  0.75103100  0.12648900  1
  C  1919  1  0.23816400  0.76215100  0.10915300  1
  C  1920  1  0.23955300  0.78433600  0.10881900  1
  C  1923  1  0.22890800  0.72816100  0.12601400  1
  C  1924  1  0.23649100  0.71587400  0.14349000  1
  C  1925  1  0.23552700  0.69352300  0.14321400  1
  C  1926  1  0.22786300  0.68248100  0.12505400  1
  C  1927  1  0.22225600  0.69465900  0.10697000  1
  C  1928  1  0.22242400  0.71692500  0.10754500  1
  C  1937  1  0.47844600  0.86618500  0.44521500  1
  C  1938  1  0.48900200  0.88321200  0.45609600  1
  C  1939  1  0.49176600  0.88333700  0.47847500  1
  C  1940  1  0.48236900  0.86634300  0.49080700  1
  C  1941  1  0.47259800  0.84901000  0.47966900  1
  C  1942  1  0.47121600  0.84869200  0.45749900  1
  C  1945  1  0.48183400  0.86587400  0.51367100  1
  C  1946  1  0.47434900  0.88340500  0.52594700  1
  C  1947  1  0.47528200  0.88313600  0.54828200  1
  C  1948  1  0.48281800  0.86494100  0.55936100  1
  C  1949  1  0.48832000  0.84681000  0.54718700  1
  C  1950  1  0.48818900  0.84737100  0.52493300  1
  C  1959  1  0.97845300  0.61407600  0.55828400  1
  C  1960  1  0.98900100  0.59704600  0.54740300  1
  C  1961  1  0.99176700  0.59692000  0.52502400  1
  C  1962  1  0.98238900  0.61392100  0.51269200  1
  C  1963  1  0.97263600  0.63126200  0.52382600  1
  C  1964  1  0.97121900  0.63156500  0.54599400  1
  C  1967  1  0.98188100  0.61439700  0.48982600  1
  C  1968  1  0.97436900  0.59688200  0.47754200  1
  C  1969  1  0.97534900  0.59714400  0.45520800  1
  C  1970  1  0.98292200  0.61533700  0.44414700  1
  C  1971  1  0.98846100  0.63345500  0.45632500  1
  C  1972  1  0.98827200  0.63289900  0.47857600  1
  C  1981  1  0.72842000  0.79660800  0.62306400  1
  C  1982  1  0.73889500  0.78571700  0.64011800  1
  C  1983  1  0.74168200  0.76333400  0.64024800  1
  C  1984  1  0.73238600  0.75103100  0.62320500  1
  C  1985  1  0.72262800  0.76215000  0.60587100  1
  C  1986  1  0.72117000  0.78433300  0.60558800  1
  C  1989  1  0.73194400  0.72817900  0.62272600  1
  C  1990  1  0.72420400  0.71592400  0.64016100  1
  C  1991  1  0.72521500  0.69358300  0.63992200  1
  C  1992  1  0.73305500  0.68250500  0.62184000  1
  C  1993  1  0.73888800  0.69467000  0.60380600  1
  C  1994  1  0.73866600  0.71693800  0.60433400  1
  C  2003  1  0.22839300  0.68369100  0.38038600  1
  C  2004  1  0.23891100  0.69457200  0.36334600  1
  C  2005  1  0.24170200  0.71695400  0.36322400  1
  C  2006  1  0.23238400  0.72925800  0.38025600  1
  C  2007  1  0.22260200  0.71813800  0.39758200  1
  C  2008  1  0.22115900  0.69595400  0.39787200  1
  C  2011  1  0.23193600  0.75210900  0.38073500  1
  C  2012  1  0.22419800  0.76436400  0.36330000  1
  C  2013  1  0.22520800  0.78670500  0.36353500  1
  C  2014  1  0.23308900  0.79776900  0.38161000  1
  C  2015  1  0.23889200  0.78561500  0.39966000  1
  C  2016  1  0.23865100  0.76334700  0.39913000  1
  C  2025  1  0.48207400  0.12009800  0.55814500  1
  C  2026  1  0.47155900  0.10307800  0.54722300  1
  C  2027  1  0.46889600  0.10297400  0.52485200  1
  C  2028  1  0.47833300  0.12000600  0.51261600  1
  C  2029  1  0.48810000  0.13732300  0.52377300  1
  C  2030  1  0.48944000  0.13759200  0.54594100  1
  C  2033  1  0.47895300  0.12047300  0.48979300  1
  C  2034  1  0.48679000  0.10301200  0.47761800  1
  C  2035  1  0.48592500  0.10322100  0.45529600  1
  C  2036  1  0.47808300  0.12128600  0.44417600  1
  C  2037  1  0.47218300  0.13936400  0.45626200  1
  C  2038  1  0.47228600  0.13886600  0.47851100  1
  C  2047  1  0.98207800  0.36019500  0.44531600  1
  C  2048  1  0.97156100  0.37722000  0.45623200  1
  C  2049  1  0.96889300  0.37733400  0.47860300  1
  C  2050  1  0.97831800  0.36030000  0.49084500  1
  C  2051  1  0.98807700  0.34297300  0.47969800  1
  C  2052  1  0.98945000  0.34271200  0.45753200  1
  C  2055  1  0.97891200  0.35983600  0.51366800  1
  C  2056  1  0.98677300  0.37729000  0.52584300  1
  C  2057  1  0.98585900  0.37709900  0.54816300  1
  C  2058  1  0.97799300  0.35904100  0.55927600  1
  C  2059  1  0.97205600  0.34096900  0.54719500  1
  C  2060  1  0.97221700  0.34144800  0.52494700  1
  C  2069  1  0.23229800  0.18362000  0.37904900  1
  C  2070  1  0.22188100  0.19453800  0.36198400  1
  C  2071  1  0.21910800  0.21692800  0.36187500  1
  C  2072  1  0.22839800  0.22922100  0.37893000  1
  C  2073  1  0.23806600  0.21806400  0.39628600  1
  C  2074  1  0.23946700  0.19587800  0.39656400  1
  C  2077  1  0.22892700  0.25208700  0.37941100  1
  C  2078  1  0.23657400  0.26434000  0.36193800  1
  C  2079  1  0.23558800  0.28668600  0.36217200  1
  C  2080  1  0.22790400  0.29778500  0.38029700  1
  C  2081  1  0.22223200  0.28562500  0.39837800  1
  C  2082  1  0.22239300  0.26335500  0.39784600  1
  C  2091  1  0.73232300  0.29664700  0.62446000  1
  C  2092  1  0.72186100  0.28573900  0.64150700  1
  C  2093  1  0.71908200  0.26335000  0.64160700  1
  C  2094  1  0.72839200  0.25105700  0.62455900  1
  C  2095  1  0.73808400  0.26221600  0.60721400  1
  C  2096  1  0.73947300  0.28440400  0.60692800  1
  C  2099  1  0.72892700  0.22819300  0.62407700  1
  C  2100  1  0.73657300  0.21593800  0.64155100  1
  C  2101  1  0.73558700  0.19359400  0.64131800  1
  C  2102  1  0.72785700  0.18251300  0.62320000  1
  C  2103  1  0.72221400  0.19466000  0.60510500  1
  C  2104  1  0.72239500  0.21693000  0.60563900  1
  N  724  1  0.95649100  0.36642200  0.76828300  1
  N  746  1  0.45647100  0.11382000  0.23520000  1
  N  768  1  0.20739800  0.47256100  0.12364400  1
  N  790  1  0.70740500  0.00774000  0.87985200  1
  N  812  1  0.50444400  0.11400600  0.76720000  1
  N  834  1  0.00444500  0.36625900  0.23628100  1
  N  856  1  0.25343800  0.00651000  0.12338000  1
  N  878  1  0.75346500  0.47373800  0.88011900  1
  N  900  1  0.00427100  0.61536200  0.23420500  1
  N  922  1  0.50427300  0.86491000  0.76928900  1
  N  944  1  0.45647600  0.86479200  0.23530900  1
  N  966  1  0.95646100  0.61551200  0.76816900  1
  N  988  1  0.70584200  0.97282100  0.63062500  1
  N  1010  1  0.20585100  0.50747200  0.37282300  1
  N  1032  1  0.75488900  0.50637400  0.63053300  1
  N  1054  1  0.25489400  0.97389700  0.37298600  1
  N  1076  1  0.98590600  0.48214800  0.82770200  1
  N  1098  1  0.48589700  0.99809300  0.17574100  1
  N  1120  1  0.23953300  0.41328400  0.24216200  1
  N  1142  1  0.73952400  0.06691500  0.76134000  1
  N  1164  1  0.47515500  0.99869500  0.82777800  1
  N  1186  1  0.97518200  0.48162100  0.17570200  1
  N  1208  1  0.22147000  0.06701600  0.24160000  1
  N  1230  1  0.72147600  0.41333100  0.76191200  1
  N  1252  1  0.72078900  0.56663100  0.75998900  1
  N  1274  1  0.22088300  0.91368400  0.24343400  1
  N  1296  1  0.73970200  0.91354700  0.76054500  1
  N  1318  1  0.23971700  0.56667000  0.24290800  1
  N  1340  1  0.49247900  0.98413300  0.32903200  1
  N  1362  1  0.99241500  0.49610900  0.67442800  1
  N  1384  1  0.96880800  0.49670700  0.32930300  1
  N  1406  1  0.46872300  0.98363800  0.67422300  1
  N  1428  1  0.84274400  0.36351700  0.84501900  1
  N  1450  1  0.34272700  0.11676500  0.15845500  1
  N  1472  1  0.09328600  0.39731400  0.12499400  1
  N  1494  1  0.59329300  0.08296800  0.87842000  1
  N  1516  1  0.11710700  0.61793700  0.15912200  1
  N  1538  1  0.61712900  0.86234500  0.84436600  1
  N  1560  1  0.86886200  0.58448200  0.87841400  1
  N  1582  1  0.36885200  0.89580200  0.12511900  1
  N  1604  1  0.34222600  0.86385700  0.34575600  1
  N  1626  1  0.84220400  0.61643400  0.65771400  1
  N  1648  1  0.59410000  0.89819500  0.62417400  1
  N  1670  1  0.09409200  0.58210600  0.37924200  1
  N  1692  1  0.61747000  0.11824600  0.65848400  1
  N  1714  1  0.11749900  0.36203200  0.34500600  1
  N  1736  1  0.36864600  0.08405000  0.37931900  1
  N  1758  1  0.86864000  0.39623200  0.62422400  1
  N  1780  1  0.00355400  0.39922300  0.98698800  1
  N  1802  1  0.50353200  0.08101700  0.01651200  1
  N  1824  1  0.25366000  0.25471700  0.15874600  1
  N  1846  1  0.75371700  0.22556600  0.84476900  1
  N  1868  1  0.95705200  0.58568400  0.01622900  1
  N  1890  1  0.45705800  0.89461300  0.98723200  1
  N  1912  1  0.70700500  0.72562000  0.84358200  1
  N  1934  1  0.20694500  0.75464300  0.15983600  1
  N  1956  1  0.50391800  0.89967400  0.48718100  1
  N  1978  1  0.00389900  0.58057000  0.51631900  1
  N  2000  1  0.75371900  0.75459700  0.65663300  1
  N  2022  1  0.25376700  0.72569200  0.34685900  1
  N  2044  1  0.45683800  0.08662000  0.51606300  1
  N  2066  1  0.95684900  0.39369800  0.48738200  1
  N  2088  1  0.20709200  0.22568000  0.34548400  1
  N  2110  1  0.70703700  0.25459600  0.65797500  1
  O  8  1  0.93137100  0.36133600  0.93327800  1
  O  15  1  0.01972900  0.41436900  0.81517100  1
  O  17  1  0.01065300  0.37511800  0.91104400  1
  O  18  1  0.98644500  0.35126100  0.84478800  1
  O  30  1  0.43136500  0.11895500  0.07020200  1
  O  37  1  0.51971400  0.06587100  0.18829700  1
  O  39  1  0.51063500  0.10512900  0.09245400  1
  O  40  1  0.48642600  0.12900100  0.15868600  1
  O  52  1  0.18129700  0.30856500  0.12150100  1
  O  59  1  0.27153100  0.42617400  0.17348200  1
  O  61  1  0.26087100  0.33050800  0.13439600  1
  O  62  1  0.23683900  0.39663200  0.11094100  1
  O  74  1  0.68129400  0.17170900  0.88194400  1
  O  81  1  0.77152700  0.05409300  0.83002200  1
  O  83  1  0.76088200  0.14978200  0.86909300  1
  O  84  1  0.73686100  0.08366500  0.89255700  1
  O  96  1  0.52951200  0.12099200  0.93229300  1
  O  103  1  0.44151800  0.06636200  0.81464300  1
  O  105  1  0.45073100  0.10569000  0.91039200  1
  O  106  1  0.47438900  0.12994000  0.84360300  1
  O  118  1  0.02943300  0.35926400  0.07115600  1
  O  125  1  0.94153600  0.41396100  0.18884300  1
  O  127  1  0.95069000  0.37460700  0.09312900  1
  O  128  1  0.97438800  0.35036100  0.15986800  1
  O  140  1  0.27958100  0.17058100  0.11951800  1
  O  147  1  0.18965400  0.05347300  0.17304400  1
  O  149  1  0.20044000  0.14900600  0.13379500  1
  O  150  1  0.22392900  0.08234100  0.11001600  1
  O  162  1  0.77961000  0.30969100  0.88396200  1
  O  169  1  0.68967900  0.42680900  0.83047700  1
  O  171  1  0.70046500  0.33125400  0.86969800  1
  O  172  1  0.72394000  0.39791500  0.89349700  1
  O  184  1  0.02928200  0.62295200  0.07021400  1
  O  191  1  0.94460400  0.56412900  0.18558700  1
  O  193  1  0.94967200  0.60980200  0.09175900  1
  O  194  1  0.97375400  0.63023400  0.15936000  1
  O  206  1  0.52929600  0.85731400  0.93326500  1
  O  213  1  0.44463200  0.91620500  0.81793300  1
  O  215  1  0.44969000  0.87049500  0.91170800  1
  O  216  1  0.47376700  0.85006800  0.84413200  1
  O  228  1  0.77937500  0.67205500  0.88077600  1
  O  235  1  0.68837200  0.55437100  0.82877700  1
  O  237  1  0.70003200  0.64952300  0.86776900  1
  O  238  1  0.72638600  0.58276900  0.89011100  1
  O  250  1  0.27939000  0.80822200  0.12271600  1
  O  257  1  0.18835600  0.92588200  0.17469000  1
  O  259  1  0.20002800  0.83072100  0.13568300  1
  O  260  1  0.22634300  0.89747100  0.11334800  1
  O  272  1  0.43127000  0.85526400  0.07143200  1
  O  279  1  0.51595500  0.91564400  0.18610800  1
  O  281  1  0.51047200  0.86992600  0.09243100  1
  O  282  1  0.48703400  0.84917800  0.16058300  1
  O  294  1  0.93134400  0.62501600  0.93208200  1
  O  301  1  0.01592000  0.56462500  0.81735700  1
  O  303  1  0.01051400  0.61033500  0.91100500  1
  O  304  1  0.98702800  0.63110300  0.84290900  1
  O  316  1  0.68125900  0.80947300  0.88293400  1
  O  323  1  0.77211000  0.92645900  0.82914500  1
  O  325  1  0.76019700  0.83148200  0.86837100  1
  O  326  1  0.73455100  0.89883100  0.89105000  1
  O  338  1  0.18122700  0.67080700  0.12052700  1
  O  345  1  0.27211300  0.55383800  0.17430000  1
  O  347  1  0.26016900  0.64881700  0.13508500  1
  O  348  1  0.23455200  0.58147300  0.11240500  1
  O  360  1  0.43137700  0.86250000  0.43366900  1
  O  367  1  0.52292500  0.91470400  0.31620400  1
  O  369  1  0.51066300  0.87562300  0.41107600  1
  O  370  1  0.48361000  0.85380200  0.34407300  1
  O  382  1  0.93138100  0.61778500  0.56981800  1
  O  389  1  0.02289000  0.56552200  0.68728700  1
  O  391  1  0.01065300  0.60461800  0.59243300  1
  O  392  1  0.98359700  0.62645400  0.65941000  1
  O  404  1  0.68150400  0.80872200  0.61910800  1
  O  411  1  0.76675500  0.92311400  0.67998100  1
  O  413  1  0.76100300  0.83018300  0.63293800  1
  O  414  1  0.73635400  0.89838600  0.61381300  1
  O  426  1  0.18149100  0.67156500  0.38432200  1
  O  433  1  0.26674000  0.55717300  0.32347400  1
  O  435  1  0.26100200  0.65011600  0.37052900  1
  O  436  1  0.23636700  0.58191100  0.38965900  1
  O  448  1  0.02954600  0.62012100  0.43250700  1
  O  455  1  0.93830000  0.56588600  0.31574200  1
  O  457  1  0.95071300  0.60521700  0.41045300  1
  O  458  1  0.97700600  0.62744700  0.34283000  1
  O  470  1  0.52946300  0.86017200  0.57093400  1
  O  477  1  0.43831900  0.91440500  0.68777400  1
  O  479  1  0.45067500  0.87510000  0.59308800  1
  O  480  1  0.47704200  0.85285500  0.66063900  1
  O  492  1  0.77954300  0.67021200  0.61709200  1
  O  499  1  0.69416800  0.55664900  0.67948300  1
  O  501  1  0.70040200  0.64944700  0.63237100  1
  O  502  1  0.72431000  0.58066000  0.61295600  1
  O  514  1  0.27955800  0.81006200  0.38636300  1
  O  521  1  0.19419000  0.92367100  0.32403800  1
  O  523  1  0.20041900  0.83082900  0.37108200  1
  O  524  1  0.22430400  0.89959500  0.39055700  1
  O  536  1  0.52906800  0.12344900  0.57002100  1
  O  543  1  0.44169600  0.06302300  0.68390100  1
  O  545  1  0.44948200  0.11068700  0.59176400  1
  O  546  1  0.47605100  0.12824900  0.66047100  1
  O  558  1  0.02907600  0.35682600  0.43345100  1
  O  565  1  0.94171400  0.41725100  0.31957200  1
  O  567  1  0.94949700  0.36961300  0.41168700  1
  O  568  1  0.97605900  0.35201300  0.34302100  1
  O  580  1  0.27927200  0.17181000  0.38304800  1
  O  587  1  0.19303300  0.05743100  0.32180500  1
  O  589  1  0.19998900  0.14983700  0.36909300  1
  O  590  1  0.22651600  0.08115100  0.38723200  1
  O  602  1  0.77928100  0.30847300  0.62047300  1
  O  609  1  0.69304600  0.42284700  0.68170200  1
  O  611  1  0.69998800  0.33042700  0.63440500  1
  O  612  1  0.72649400  0.39911200  0.61626500  1
  O  624  1  0.93140600  0.35488600  0.57132400  1
  O  631  1  0.01902300  0.41665400  0.68444300  1
  O  633  1  0.01068200  0.36905300  0.59239800  1
  O  634  1  0.98481400  0.35115100  0.66163100  1
  O  646  1  0.43148500  0.12542900  0.43217600  1
  O  653  1  0.51900800  0.06357400  0.31904500  1
  O  655  1  0.51072600  0.11122500  0.41102700  1
  O  656  1  0.48480100  0.12910000  0.34184200  1
  O  668  1  0.18134600  0.30970700  0.38521100  1
  O  675  1  0.26751400  0.42335400  0.32233100  1
  O  677  1  0.26021600  0.33110200  0.36968800  1
  O  678  1  0.23430000  0.40033600  0.38811900  1
  O  690  1  0.68132000  0.17058600  0.61827800  1
  O  697  1  0.76747000  0.05692000  0.68114500  1
  O  699  1  0.76018700  0.14919700  0.63380700  1
  O  700  1  0.73429200  0.07997100  0.61535300  1
