# generated using pymatgen
data_H10C15N4
_symmetry_space_group_name_H-M   'P 1'
_cell_length_a   22.25000000
_cell_length_b   54.25880000
_cell_length_c   54.25880000
_cell_angle_alpha   90.00000000
_cell_angle_beta   90.00000000
_cell_angle_gamma   90.00000000
_symmetry_Int_Tables_number   1
_chemical_formula_structural   H10C15N4
_chemical_formula_sum   'H320 C480 N128'
_cell_volume   65504.38664804
_cell_formula_units_Z   32
loop_
 _symmetry_equiv_pos_site_id
 _symmetry_equiv_pos_as_xyz
  1  'x, y, z'
loop_
 _atom_site_type_symbol
 _atom_site_label
 _atom_site_symmetry_multiplicity
 _atom_site_fract_x
 _atom_site_fract_y
 _atom_site_fract_z
 _atom_site_occupancy
  C  1  1  0.99079200  0.09938600  0.29090800  1
  C  2  1  0.93503400  0.10813400  0.30646600  1
  C  3  1  0.04730700  0.10178300  0.30822300  1
  C  4  1  0.05721600  0.12885200  0.31755800  1
  C  7  1  0.99876400  0.13657900  0.33207500  1
  C  8  1  0.93980100  0.13519000  0.31616200  1
  C  13  1  0.94860100  0.15268300  0.29340500  1
  C  14  1  0.00509900  0.14573000  0.27752900  1
  C  17  1  0.06190000  0.14654700  0.29459900  1
  C  20  1  0.99763000  0.11802900  0.26890700  1
  C  23  1  0.99079400  0.91848100  0.72692700  1
  C  24  1  0.93503200  0.90974300  0.71136600  1
  C  25  1  0.04731100  0.91608200  0.70961000  1
  C  26  1  0.05719800  0.88901300  0.70027000  1
  C  29  1  0.99874400  0.88129800  0.68575000  1
  C  30  1  0.93978000  0.88269000  0.70166300  1
  C  35  1  0.94856800  0.86518800  0.72441500  1
  C  36  1  0.00506700  0.87213300  0.74029400  1
  C  39  1  0.06186800  0.87131500  0.72322400  1
  C  42  1  0.99761700  0.89983300  0.74892300  1
  C  45  1  0.99083200  0.72691200  0.09937000  1
  C  46  1  0.93507000  0.71135500  0.10811700  1
  C  47  1  0.04734800  0.70959500  0.10177300  1
  C  48  1  0.05724700  0.70026400  0.12884300  1
  C  51  1  0.99879000  0.68574800  0.13656700  1
  C  52  1  0.93982800  0.70166100  0.13517300  1
  C  57  1  0.94862800  0.72442100  0.15266500  1
  C  58  1  0.00512700  0.74029400  0.14571300  1
  C  61  1  0.06192700  0.72322400  0.14653500  1
  C  64  1  0.99766600  0.74891400  0.11801000  1
  C  67  1  0.99082600  0.29090800  0.91846300  1
  C  68  1  0.93506800  0.30646600  0.90971900  1
  C  69  1  0.04734200  0.30822100  0.91606300  1
  C  70  1  0.05724300  0.31755600  0.88899300  1
  C  73  1  0.99878900  0.33207500  0.88127100  1
  C  74  1  0.93982400  0.31616200  0.88266400  1
  C  79  1  0.94861400  0.29340700  0.86516800  1
  C  80  1  0.00511300  0.27752900  0.87211800  1
  C  83  1  0.06191400  0.29459700  0.87129800  1
  C  86  1  0.99765400  0.26890600  0.89982100  1
  C  89  1  0.99079600  0.91845900  0.29094100  1
  C  90  1  0.04731600  0.91604800  0.30825200  1
  C  91  1  0.93503700  0.90971600  0.30649800  1
  C  92  1  0.93978300  0.88265700  0.31619000  1
  C  95  1  0.99874600  0.88125600  0.33210100  1
  C  96  1  0.05720000  0.88897600  0.31758200  1
  C  101  1  0.06186700  0.87128700  0.29461900  1
  C  102  1  0.00506300  0.87211400  0.27755300  1
  C  105  1  0.94856200  0.86516600  0.29342900  1
  C  108  1  0.99761600  0.89981900  0.26893500  1
  C  111  1  0.99081200  0.09937400  0.72689900  1
  C  112  1  0.04732800  0.10177500  0.70958400  1
  C  113  1  0.93505000  0.10811900  0.71134100  1
  C  114  1  0.93981000  0.13517600  0.70164600  1
  C  117  1  0.99877600  0.13657000  0.68573400  1
  C  118  1  0.05722600  0.12884500  0.70025100  1
  C  123  1  0.06190500  0.14653900  0.72321000  1
  C  124  1  0.00510400  0.14571800  0.74028000  1
  C  127  1  0.94860600  0.15266900  0.72440400  1
  C  130  1  0.99764400  0.11801600  0.74890100  1
  C  133  1  0.99084400  0.29096500  0.09938000  1
  C  134  1  0.04735900  0.30827800  0.10178500  1
  C  135  1  0.93508200  0.30652000  0.10812700  1
  C  136  1  0.93983700  0.31621000  0.13518600  1
  C  139  1  0.99880300  0.33212300  0.13658300  1
  C  140  1  0.05725400  0.31760600  0.12885700  1
  C  145  1  0.06192800  0.29464300  0.14654500  1
  C  146  1  0.00512700  0.27757300  0.14572100  1
  C  149  1  0.94862800  0.29344900  0.15267500  1
  C  152  1  0.99766700  0.26895700  0.11801700  1
  C  155  1  0.99081700  0.72691200  0.91844600  1
  C  156  1  0.04733000  0.70959500  0.91604500  1
  C  157  1  0.93505200  0.71135700  0.90970100  1
  C  158  1  0.93981000  0.70166100  0.88264500  1
  C  161  1  0.99877100  0.68574700  0.88125000  1
  C  162  1  0.05722700  0.70026200  0.88897400  1
  C  167  1  0.06190900  0.72322100  0.87128100  1
  C  168  1  0.00511000  0.74029300  0.87210300  1
  C  171  1  0.94860800  0.72442100  0.86515200  1
  C  174  1  0.99765400  0.74891400  0.89980400  1
  C  177  1  0.49072300  0.59926500  0.79069700  1
  C  178  1  0.43424500  0.60608000  0.80692500  1
  C  179  1  0.54848000  0.60372700  0.80713000  1
  C  180  1  0.55280400  0.63081000  0.81732300  1
  C  183  1  0.49444200  0.63476300  0.83319900  1
  C  184  1  0.43516800  0.63280200  0.81767200  1
  C  189  1  0.43837100  0.65060600  0.79484600  1
  C  190  1  0.49454800  0.64575500  0.77784400  1
  C  193  1  0.55241000  0.64835200  0.79417500  1
  C  196  1  0.49213800  0.61809500  0.76883500  1
  C  199  1  0.49075400  0.41858100  0.22714800  1
  C  200  1  0.43427200  0.41176900  0.21091900  1
  C  201  1  0.54851200  0.41411700  0.21071600  1
  C  202  1  0.55282800  0.38703600  0.20051900  1
  C  205  1  0.49446600  0.38308600  0.18464300  1
  C  206  1  0.43519300  0.38504700  0.20017000  1
  C  211  1  0.43839300  0.36724000  0.22299600  1
  C  212  1  0.49457000  0.37208900  0.23999800  1
  C  215  1  0.55243000  0.36949200  0.22366500  1
  C  218  1  0.49216600  0.39974700  0.24900800  1
  C  221  1  0.49072000  0.22710400  0.59926900  1
  C  222  1  0.43421800  0.21089700  0.60609900  1
  C  223  1  0.54844800  0.21065300  0.60372500  1
  C  224  1  0.55278600  0.20046500  0.63080800  1
  C  227  1  0.49439700  0.18461100  0.63478000  1
  C  228  1  0.43514900  0.20015700  0.63282400  1
  C  233  1  0.43841600  0.22298500  0.65062100  1
  C  234  1  0.49462400  0.23996700  0.64575700  1
  C  237  1  0.55246200  0.22361700  0.64834600  1
  C  240  1  0.49220100  0.24897000  0.61809300  1
  C  243  1  0.49074300  0.79070700  0.41857700  1
  C  244  1  0.43425400  0.80692900  0.41176000  1
  C  245  1  0.54849200  0.80714400  0.41411100  1
  C  246  1  0.55280800  0.81733800  0.38703000  1
  C  249  1  0.49443800  0.83320500  0.38307500  1
  C  250  1  0.43517100  0.81767400  0.38503600  1
  C  255  1  0.43838900  0.79484600  0.36723400  1
  C  256  1  0.49457600  0.77785100  0.37208700  1
  C  259  1  0.55243000  0.79418800  0.36948800  1
  C  262  1  0.49217000  0.76884500  0.39974700  1
  C  265  1  0.49074100  0.41855900  0.79072900  1
  C  266  1  0.54849200  0.41409100  0.80716300  1
  C  267  1  0.43425400  0.41174100  0.80695100  1
  C  268  1  0.43517500  0.38501400  0.81769000  1
  C  271  1  0.49444400  0.38304900  0.83322100  1
  C  272  1  0.55281000  0.38700800  0.81735100  1
  C  277  1  0.55242600  0.36947200  0.79419700  1
  C  278  1  0.49456800  0.37207200  0.77786300  1
  C  281  1  0.43838500  0.36721600  0.79486100  1
  C  284  1  0.49216100  0.39973400  0.76886100  1
  C  287  1  0.49075000  0.59925900  0.22711500  1
  C  288  1  0.54852000  0.60373400  0.21069400  1
  C  289  1  0.43428100  0.60606900  0.21087600  1
  C  290  1  0.43519300  0.63279500  0.20013700  1
  C  293  1  0.49448400  0.63476900  0.18462100  1
  C  294  1  0.55282800  0.63081900  0.20050800  1
  C  299  1  0.55239200  0.64835500  0.22366000  1
  C  300  1  0.49451600  0.64574800  0.23997900  1
  C  303  1  0.43835300  0.65059300  0.22296800  1
  C  306  1  0.49212000  0.61808600  0.24898100  1
  C  309  1  0.49074300  0.79074900  0.59927400  1
  C  310  1  0.54849400  0.80718100  0.60374200  1
  C  311  1  0.43425900  0.80697300  0.60609100  1
  C  312  1  0.43517200  0.81771200  0.63281700  1
  C  315  1  0.49444400  0.83324000  0.63478300  1
  C  316  1  0.55280800  0.81736900  0.63082700  1
  C  321  1  0.55242000  0.79421700  0.64836500  1
  C  322  1  0.49456100  0.77788500  0.64576000  1
  C  325  1  0.43837600  0.79488300  0.65061500  1
  C  328  1  0.49215800  0.76888100  0.61809900  1
  C  331  1  0.49071800  0.22709300  0.41855900  1
  C  332  1  0.54844800  0.21064400  0.41410200  1
  C  333  1  0.43421400  0.21088400  0.41173200  1
  C  334  1  0.43514000  0.20014400  0.38500700  1
  C  337  1  0.49439000  0.18460000  0.38305100  1
  C  338  1  0.55277900  0.20045400  0.38701700  1
  C  343  1  0.55244600  0.22360600  0.36947900  1
  C  344  1  0.49461000  0.23995400  0.37207200  1
  C  347  1  0.43840300  0.22297200  0.36720900  1
  C  350  1  0.49219000  0.24895700  0.39973400  1
  C  353  1  0.01162600  0.16435900  0.25670900  1
  C  354  1  0.00800400  0.15833400  0.23125300  1
  C  356  1  0.01685400  0.20031600  0.21866100  1
  C  357  1  0.02214800  0.20768800  0.24356200  1
  C  358  1  0.01972000  0.18977400  0.26216000  1
  C  360  1  0.01686200  0.21869100  0.20029000  1
  C  361  1  0.01165400  0.25674700  0.16434300  1
  C  362  1  0.01977300  0.26219300  0.18975900  1
  C  365  1  0.02216000  0.24359000  0.20766900  1
  C  369  1  0.00800000  0.23129300  0.15831400  1
  C  371  1  0.01158100  0.85350200  0.76111300  1
  C  372  1  0.00795800  0.85952300  0.78656900  1
  C  374  1  0.01683800  0.81754500  0.79915900  1
  C  375  1  0.02211600  0.81017200  0.77425400  1
  C  376  1  0.01970200  0.82808800  0.75565800  1
  C  378  1  0.01685200  0.79917000  0.81752800  1
  C  379  1  0.01164700  0.76111700  0.85347800  1
  C  380  1  0.01975100  0.75566900  0.82806300  1
  C  383  1  0.02214200  0.77427000  0.81015000  1
  C  387  1  0.00800300  0.78657100  0.85950600  1
  C  389  1  0.01165200  0.76111700  0.16434000  1
  C  390  1  0.00801800  0.78657300  0.15831500  1
  C  392  1  0.01681100  0.79916800  0.20029700  1
  C  393  1  0.02212400  0.77426700  0.20767100  1
  C  394  1  0.01973000  0.75566900  0.18975700  1
  C  396  1  0.01680300  0.81753900  0.21867000  1
  C  397  1  0.01156700  0.85348900  0.25672700  1
  C  398  1  0.01965800  0.82807200  0.26217300  1
  C  401  1  0.02209300  0.81016100  0.24357100  1
  C  405  1  0.00792200  0.85951700  0.23127300  1
  C  407  1  0.01163900  0.25670900  0.85348900  1
  C  408  1  0.00797500  0.23125300  0.85951200  1
  C  410  1  0.01683500  0.21866100  0.81753200  1
  C  411  1  0.02213000  0.24356400  0.81015800  1
  C  412  1  0.01971600  0.26216200  0.82807400  1
  C  414  1  0.01683600  0.20029200  0.79915700  1
  C  415  1  0.01162200  0.16434300  0.76110200  1
  C  416  1  0.01972000  0.18975900  0.75565600  1
  C  419  1  0.02214600  0.20766900  0.77425800  1
  C  423  1  0.00800300  0.15831400  0.78655800  1
  C  425  1  0.49608400  0.66468600  0.75711400  1
  C  426  1  0.49472300  0.65868700  0.73160300  1
  C  428  1  0.49797900  0.70082800  0.71917500  1
  C  429  1  0.49988900  0.70826500  0.74413300  1
  C  430  1  0.49892500  0.69027300  0.76266700  1
  C  432  1  0.49798600  0.71919600  0.70081300  1
  C  433  1  0.49610200  0.75714900  0.66468500  1
  C  434  1  0.49894800  0.76269300  0.69027500  1
  C  437  1  0.49990000  0.74415200  0.70825900  1
  C  441  1  0.49474100  0.73164000  0.65867600  1
  C  443  1  0.49611200  0.35315600  0.26072400  1
  C  444  1  0.49476100  0.35915300  0.28623600  1
  C  446  1  0.49805300  0.31701200  0.29866100  1
  C  447  1  0.49995000  0.30957700  0.27370300  1
  C  448  1  0.49896400  0.32756900  0.25517000  1
  C  450  1  0.49807800  0.29864300  0.31702100  1
  C  451  1  0.49619400  0.26068900  0.35314800  1
  C  452  1  0.49905100  0.25514600  0.32756000  1
  C  455  1  0.49999900  0.27368600  0.30957500  1
  C  459  1  0.49484000  0.28619900  0.35915800  1
  C  461  1  0.49621500  0.26070000  0.66468100  1
  C  462  1  0.49486000  0.28621000  0.65867600  1
  C  464  1  0.49808200  0.29864800  0.70081700  1
  C  465  1  0.50001300  0.27369000  0.70825700  1
  C  466  1  0.49906600  0.25515300  0.69026900  1
  C  468  1  0.49806000  0.31701200  0.71918100  1
  C  469  1  0.49611800  0.35314600  0.75712900  1
  C  470  1  0.49896800  0.32755600  0.76267600  1
  C  473  1  0.49996100  0.30957200  0.74413900  1
  C  477  1  0.49476300  0.35915100  0.73161900  1
  C  479  1  0.49611800  0.75711800  0.35315900  1
  C  480  1  0.49474800  0.73160800  0.35916400  1
  C  482  1  0.49795600  0.71917300  0.31702300  1
  C  483  1  0.49988200  0.74413000  0.30958500  1
  C  484  1  0.49895200  0.76266700  0.32757100  1
  C  486  1  0.49792700  0.70081000  0.29865900  1
  C  487  1  0.49602200  0.66467500  0.26071300  1
  C  488  1  0.49885600  0.69026400  0.25516400  1
  C  491  1  0.49983300  0.70825000  0.27370100  1
  C  495  1  0.49466400  0.65866900  0.28622300  1
  C  497  1  0.88239000  0.14207300  0.32978600  1
  C  498  1  0.87947600  0.15001400  0.35474800  1
  C  500  1  0.77315400  0.15627200  0.35323100  1
  C  501  1  0.77278100  0.14806100  0.32846500  1
  C  502  1  0.82660800  0.14109200  0.31715400  1
  C  504  1  0.71846200  0.16459200  0.36354300  1
  C  505  1  0.60858600  0.18544800  0.38067900  1
  C  506  1  0.61333600  0.17462900  0.35690600  1
  C  509  1  0.66692200  0.16437400  0.34830800  1
  C  513  1  0.66098100  0.18381300  0.39557600  1
  C  515  1  0.88236300  0.87581500  0.68803700  1
  C  516  1  0.87944200  0.86788700  0.66307400  1
  C  518  1  0.77312200  0.86161700  0.66460000  1
  C  519  1  0.77275800  0.86982700  0.68936600  1
  C  520  1  0.82658100  0.87681200  0.70067000  1
  C  522  1  0.71844200  0.85327900  0.65429400  1
  C  523  1  0.60863500  0.83235100  0.63719000  1
  C  524  1  0.61335600  0.84319000  0.66095400  1
  C  527  1  0.66691600  0.85347600  0.66953900  1
  C  531  1  0.66097000  0.83404500  0.62226400  1
  C  533  1  0.88241400  0.68803900  0.14205600  1
  C  534  1  0.87949100  0.66307400  0.14998000  1
  C  536  1  0.77319000  0.66461100  0.15629000  1
  C  537  1  0.77281400  0.68937200  0.14806400  1
  C  538  1  0.82663700  0.70067500  0.14107400  1
  C  540  1  0.71850900  0.65430700  0.16463100  1
  C  541  1  0.60867300  0.63719400  0.18554200  1
  C  542  1  0.61345100  0.66097500  0.17474200  1
  C  545  1  0.66698600  0.66955200  0.16443100  1
  C  549  1  0.66103700  0.62228200  0.18387300  1
  C  551  1  0.88241000  0.32978600  0.87578200  1
  C  552  1  0.87949400  0.35474600  0.86783900  1
  C  554  1  0.77318400  0.35321800  0.86155600  1
  C  555  1  0.77280800  0.32845700  0.86978100  1
  C  556  1  0.82663000  0.31715200  0.87676600  1
  C  558  1  0.71850000  0.36351900  0.85321200  1
  C  559  1  0.60863000  0.38064800  0.83233700  1
  C  560  1  0.61342200  0.35686400  0.84312900  1
  C  563  1  0.66696300  0.34828100  0.85343000  1
  C  567  1  0.66100100  0.39555800  0.83400500  1
  C  569  1  0.11510400  0.88677000  0.33238700  1
  C  570  1  0.11796800  0.87738400  0.35683200  1
  C  572  1  0.22377500  0.87101200  0.35459500  1
  C  573  1  0.22504500  0.88205600  0.33099500  1
  C  574  1  0.17137800  0.89082700  0.32065900  1
  C  576  1  0.27659600  0.85982700  0.36352200  1
  C  577  1  0.38068300  0.83336100  0.37839600  1
  C  578  1  0.37826300  0.84580700  0.35535200  1
  C  581  1  0.32763000  0.85932800  0.34801700  1
  C  585  1  0.32860200  0.83570000  0.39342200  1
  C  587  1  0.11515300  0.13105600  0.68545900  1
  C  588  1  0.11799900  0.14042400  0.66100800  1
  C  590  1  0.22380100  0.14677100  0.66324300  1
  C  591  1  0.22506000  0.13572000  0.68684500  1
  C  592  1  0.17141400  0.12690300  0.69716400  1
  C  594  1  0.27661000  0.15797300  0.65432700  1
  C  595  1  0.38064600  0.18448200  0.63947400  1
  C  596  1  0.37822800  0.17203500  0.66251500  1
  C  599  1  0.32762500  0.15849200  0.66984100  1
  C  603  1  0.32859500  0.18211600  0.62443500  1
  C  605  1  0.11518200  0.33239600  0.13106900  1
  C  606  1  0.11802600  0.35686200  0.14040800  1
  C  608  1  0.22382000  0.35461000  0.14681200  1
  C  609  1  0.22510400  0.33101900  0.13575000  1
  C  610  1  0.17145500  0.32068200  0.12696900  1
  C  612  1  0.27663700  0.36353900  0.15799900  1
  C  613  1  0.38070400  0.37840300  0.18448400  1
  C  614  1  0.37827600  0.35536000  0.17204000  1
  C  617  1  0.32767400  0.34803600  0.15849600  1
  C  621  1  0.32862200  0.39342900  0.18214500  1
  C  623  1  0.11513100  0.68545400  0.88677000  1
  C  624  1  0.11798500  0.66101100  0.87737100  1
  C  626  1  0.22378400  0.66324500  0.87101800  1
  C  627  1  0.22506000  0.68684300  0.88206500  1
  C  628  1  0.17140600  0.69717900  0.89084500  1
  C  630  1  0.27660500  0.65432300  0.85982900  1
  C  631  1  0.38068900  0.63944400  0.83336300  1
  C  632  1  0.37825500  0.66249300  0.84579600  1
  C  635  1  0.32765100  0.66982100  0.85933700  1
  C  639  1  0.32861800  0.62441500  0.83571500  1
  C  641  1  0.11510300  0.88680900  0.68546600  1
  C  642  1  0.11797100  0.87740600  0.66103000  1
  C  644  1  0.22377800  0.87105300  0.66325600  1
  C  645  1  0.22504400  0.88209100  0.68686000  1
  C  646  1  0.17137700  0.89086200  0.69719500  1
  C  648  1  0.27660400  0.85987100  0.65432900  1
  C  649  1  0.38069000  0.83340400  0.63945700  1
  C  650  1  0.37826300  0.84584600  0.66250100  1
  C  653  1  0.32763300  0.85936600  0.66983600  1
  C  657  1  0.32861000  0.83574600  0.62442900  1
  C  659  1  0.11513900  0.13106000  0.33235200  1
  C  660  1  0.11798100  0.14042500  0.35680500  1
  C  662  1  0.22378400  0.14676900  0.35457500  1
  C  663  1  0.22504600  0.13572100  0.33097300  1
  C  664  1  0.17140200  0.12690700  0.32064800  1
  C  666  1  0.27659500  0.15796800  0.36349700  1
  C  667  1  0.38064100  0.18446800  0.37835700  1
  C  668  1  0.37822300  0.17202300  0.35531400  1
  C  671  1  0.32761500  0.15848500  0.34798400  1
  C  675  1  0.32858200  0.18210600  0.39339200  1
  C  677  1  0.11516800  0.33235000  0.88678100  1
  C  678  1  0.11800700  0.35681800  0.87745400  1
  C  680  1  0.22380000  0.35456400  0.87104000  1
  C  681  1  0.22508500  0.33096900  0.88209800  1
  C  682  1  0.17143700  0.32063000  0.89088000  1
  C  684  1  0.27661000  0.36349300  0.85985300  1
  C  685  1  0.38069000  0.37837000  0.83337800  1
  C  686  1  0.37825000  0.35531900  0.84580700  1
  C  689  1  0.32764800  0.34799000  0.85935000  1
  C  693  1  0.32859200  0.39338900  0.83571100  1
  C  695  1  0.11515300  0.68545700  0.13104400  1
  C  696  1  0.11801100  0.66101700  0.14044400  1
  C  698  1  0.22381400  0.66324200  0.14679100  1
  C  699  1  0.22508700  0.68684300  0.13575000  1
  C  700  1  0.17143200  0.69718100  0.12697300  1
  C  702  1  0.27663800  0.65431600  0.15797500  1
  C  703  1  0.38071900  0.63943700  0.18444200  1
  C  704  1  0.37828700  0.66248600  0.17200700  1
  C  707  1  0.32768400  0.66981600  0.15846800  1
  C  711  1  0.32865900  0.62440200  0.18207900  1
  C  713  1  0.88239900  0.14205900  0.68802300  1
  C  714  1  0.87948200  0.15000500  0.66306300  1
  C  716  1  0.77316000  0.15626800  0.66458500  1
  C  717  1  0.77279000  0.14805100  0.68934800  1
  C  718  1  0.82661700  0.14107600  0.70065700  1
  C  720  1  0.71847100  0.16459400  0.65427500  1
  C  721  1  0.60858800  0.18545700  0.63714400  1
  C  722  1  0.61335000  0.17463500  0.66091900  1
  C  725  1  0.66693400  0.16437600  0.66951100  1
  C  729  1  0.66098600  0.18382500  0.62224900  1
  C  731  1  0.88236700  0.87577700  0.32981600  1
  C  732  1  0.87945500  0.86783700  0.35477600  1
  C  734  1  0.77313600  0.86157200  0.35325500  1
  C  735  1  0.77275800  0.86979200  0.32849200  1
  C  736  1  0.82658100  0.87678100  0.31718700  1
  C  738  1  0.71845300  0.85323500  0.36356300  1
  C  739  1  0.60863000  0.83232700  0.38067900  1
  C  740  1  0.61335600  0.84316100  0.35691000  1
  C  743  1  0.66692000  0.85344300  0.34832300  1
  C  747  1  0.66099000  0.83399500  0.39559100  1
  C  749  1  0.88239900  0.68803700  0.87575800  1
  C  750  1  0.87948600  0.66307400  0.86782400  1
  C  752  1  0.77318600  0.66460500  0.86151900  1
  C  753  1  0.77279600  0.68936400  0.86975500  1
  C  754  1  0.82661500  0.70067000  0.87674600  1
  C  756  1  0.71850700  0.65429700  0.85318100  1
  C  757  1  0.60862600  0.63716100  0.83231300  1
  C  758  1  0.61342600  0.66094900  0.84309800  1
  C  761  1  0.66697000  0.66953400  0.85339700  1
  C  765  1  0.66104600  0.62227700  0.83392900  1
  C  767  1  0.88242100  0.32983200  0.14206800  1
  C  768  1  0.87950000  0.35479200  0.15001500  1
  C  770  1  0.77319000  0.35326100  0.15629500  1
  C  771  1  0.77281700  0.32850000  0.14806700  1
  C  772  1  0.82664200  0.31719800  0.14108100  1
  C  774  1  0.71850400  0.36355900  0.16464000  1
  C  775  1  0.60866000  0.38067000  0.18554000  1
  C  776  1  0.61343300  0.35689500  0.17473000  1
  C  779  1  0.66697200  0.34831900  0.16442300  1
  C  783  1  0.66100100  0.39559500  0.18385200  1
  C  785  1  0.98425900  0.94484400  0.28154700  1
  C  786  1  0.93115400  0.95901500  0.28519200  1
  C  788  1  0.97796000  0.99602200  0.27247000  1
  C  789  1  0.03110000  0.98326300  0.26623900  1
  C  790  1  0.03287100  0.95753800  0.27003700  1
  C  792  1  0.97794000  0.02182900  0.27245000  1
  C  793  1  0.98424400  0.07300400  0.28150600  1
  C  794  1  0.03281200  0.06032300  0.26994900  1
  C  797  1  0.03107400  0.03458600  0.26620700  1
  C  801  1  0.93114500  0.05883400  0.28516800  1
  C  803  1  0.98428200  0.07299200  0.73629900  1
  C  804  1  0.93118500  0.05882000  0.73264600  1
  C  806  1  0.97794000  0.02183000  0.74543300  1
  C  807  1  0.03107700  0.03459300  0.75166800  1
  C  808  1  0.03284400  0.06032100  0.74787100  1
  C  810  1  0.97792200  0.99602200  0.74544800  1
  C  811  1  0.98425500  0.94486200  0.73633400  1
  C  812  1  0.03282500  0.95753500  0.74789900  1
  C  815  1  0.03106900  0.98326700  0.75167700  1
  C  819  1  0.93113100  0.95902600  0.73270500  1
  C  821  1  0.98429100  0.73631200  0.94482900  1
  C  822  1  0.93117400  0.73267400  0.95899600  1
  C  824  1  0.97800300  0.74538500  0.99600000  1
  C  825  1  0.03112800  0.75162900  0.98324100  1
  C  826  1  0.03288800  0.74784500  0.95751400  1
  C  828  1  0.97799000  0.74537900  0.02180700  1
  C  829  1  0.98429800  0.73630200  0.07298400  1
  C  830  1  0.03288900  0.74783100  0.06029100  1
  C  833  1  0.03112100  0.75162700  0.03456500  1
  C  837  1  0.93123900  0.73260200  0.05879900  1
  C  839  1  0.98431600  0.28157800  0.07299200  1
  C  840  1  0.93123700  0.28525500  0.05881100  1
  C  842  1  0.97799000  0.27245700  0.02182900  1
  C  843  1  0.03113600  0.26623300  0.03458600  1
  C  844  1  0.03290200  0.27003400  0.06031100  1
  C  846  1  0.97799900  0.27243900  0.99602200  1
  C  847  1  0.98429100  0.28150800  0.94484700  1
  C  848  1  0.03288000  0.26997500  0.95753500  1
  C  851  1  0.03110900  0.26617200  0.98326000  1
  C  855  1  0.93119000  0.28516700  0.95901800  1
  C  857  1  0.48776600  0.44491200  0.78087600  1
  C  858  1  0.43376100  0.45898500  0.78120600  1
  C  860  1  0.48402600  0.49601200  0.77105100  1
  C  861  1  0.53871600  0.48326700  0.76775700  1
  C  862  1  0.53938300  0.45757000  0.77176200  1
  C  864  1  0.48400800  0.52181700  0.77103000  1
  C  865  1  0.48774800  0.57291300  0.78083700  1
  C  866  1  0.53933800  0.56027400  0.77167000  1
  C  869  1  0.53869100  0.53456400  0.76772600  1
  C  873  1  0.43374800  0.55883600  0.78118500  1
  C  875  1  0.48779000  0.57290800  0.23697000  1
  C  876  1  0.43379600  0.55882700  0.23662900  1
  C  878  1  0.48403500  0.52182100  0.24684700  1
  C  879  1  0.53871800  0.53457300  0.25014900  1
  C  880  1  0.53937900  0.56027400  0.24614800  1
  C  882  1  0.48402200  0.49601300  0.24686300  1
  C  883  1  0.48778100  0.44492900  0.23701000  1
  C  884  1  0.53937200  0.45756600  0.24618100  1
  C  887  1  0.53871600  0.48327300  0.25016000  1
  C  891  1  0.43377000  0.45899800  0.23669100  1
  C  893  1  0.48774600  0.23694600  0.44491200  1
  C  894  1  0.43374300  0.23660100  0.45898900  1
  C  896  1  0.48402000  0.24675400  0.49600600  1
  C  897  1  0.53869100  0.25007700  0.48326000  1
  C  898  1  0.53935000  0.24608900  0.45755900  1
  C  900  1  0.48400400  0.24675400  0.52181200  1
  C  901  1  0.48773800  0.23695000  0.57291300  1
  C  902  1  0.53933800  0.24608700  0.56025900  1
  C  905  1  0.53868000  0.25008500  0.53455800  1
  C  909  1  0.43377400  0.23654200  0.55881800  1
  C  911  1  0.48777900  0.78090000  0.57292100  1
  C  912  1  0.43378400  0.78124600  0.55883800  1
  C  914  1  0.48404200  0.77104900  0.52183400  1
  C  915  1  0.53873000  0.76775200  0.53457700  1
  C  916  1  0.53938800  0.77175500  0.56027600  1
  C  918  1  0.48405600  0.77104000  0.49602600  1
  C  919  1  0.48777600  0.78085200  0.44492900  1
  C  920  1  0.53938600  0.77171600  0.45757900  1
  C  923  1  0.53872500  0.76770600  0.48327600  1
  C  927  1  0.43378400  0.78120200  0.45900900  1
  H  5  1  0.08739200  0.09583400  0.29832400  1
  H  6  1  0.04247400  0.08939700  0.32404000  1
  H  9  1  0.99380800  0.12457100  0.34817000  1
  H  10  1  0.00398100  0.15549200  0.33878000  1
  H  11  1  0.92835800  0.09579100  0.32222200  1
  H  12  1  0.89537400  0.10666300  0.29472400  1
  H  15  1  0.95186600  0.17155300  0.30036200  1
  H  16  1  0.90943200  0.15221700  0.28124800  1
  H  18  1  0.06970100  0.16519700  0.30152700  1
  H  19  1  0.10065100  0.14195900  0.28310200  1
  H  21  1  0.95797200  0.11640000  0.25707000  1
  H  22  1  0.03662400  0.11279300  0.25778300  1
  H  27  1  0.08740100  0.92202300  0.71951100  1
  H  28  1  0.04248300  0.92847200  0.69379700  1
  H  31  1  0.99379600  0.89330900  0.66965700  1
  H  32  1  0.00394100  0.86238500  0.67904000  1
  H  33  1  0.92835800  0.92209200  0.69561400  1
  H  34  1  0.89537200  0.91121200  0.72310800  1
  H  37  1  0.95182400  0.84632100  0.71745600  1
  H  38  1  0.90939800  0.86565700  0.73657300  1
  H  40  1  0.06965800  0.85266300  0.71629500  1
  H  41  1  0.10062000  0.87589600  0.73472500  1
  H  43  1  0.95796000  0.90146500  0.76076100  1
  H  44  1  0.03661400  0.90506400  0.76004800  1
  H  49  1  0.08743600  0.71949400  0.09582400  1
  H  50  1  0.04251500  0.69377800  0.08938800  1
  H  53  1  0.99383700  0.66965300  0.12455900  1
  H  54  1  0.00399500  0.67904400  0.15548100  1
  H  55  1  0.92839200  0.69559900  0.09577500  1
  H  56  1  0.89541200  0.72309900  0.10664600  1
  H  59  1  0.95188800  0.71746500  0.17153500  1
  H  60  1  0.90946000  0.73657900  0.15219700  1
  H  62  1  0.06972100  0.71629800  0.16518700  1
  H  63  1  0.10067800  0.73472100  0.14194800  1
  H  65  1  0.95801200  0.76075200  0.11637800  1
  H  66  1  0.03666300  0.76003700  0.11277500  1
  H  71  1  0.08742800  0.29832400  0.92201100  1
  H  72  1  0.04251500  0.32403800  0.92844800  1
  H  75  1  0.99383700  0.34817000  0.89327800  1
  H  76  1  0.00399900  0.33878000  0.86235800  1
  H  77  1  0.92839400  0.32222000  0.92206400  1
  H  78  1  0.89540600  0.29472400  0.91118800  1
  H  81  1  0.95187500  0.30036200  0.84629900  1
  H  82  1  0.90944600  0.28124800  0.86563600  1
  H  84  1  0.06971000  0.30152500  0.85264700  1
  H  85  1  0.10066400  0.28309900  0.87588300  1
  H  87  1  0.95799600  0.25707000  0.90145200  1
  H  88  1  0.03664900  0.25778100  0.90505300  1
  H  93  1  0.89537200  0.91119000  0.29475900  1
  H  94  1  0.92837200  0.92205700  0.32225500  1
  H  97  1  0.99380600  0.89326100  0.34819800  1
  H  98  1  0.00394600  0.86234100  0.33880000  1
  H  99  1  0.04249700  0.92843300  0.32407100  1
  H  100  1  0.08740500  0.92199200  0.29835300  1
  H  103  1  0.06965700  0.85263400  0.30154400  1
  H  104  1  0.10061900  0.87587200  0.28312300  1
  H  106  1  0.95181600  0.84629600  0.30038300  1
  H  107  1  0.90939200  0.86564000  0.28127200  1
  H  109  1  0.03661000  0.90505300  0.25781200  1
  H  110  1  0.95795800  0.90145500  0.25709900  1
  H  115  1  0.89539200  0.10664900  0.72308200  1
  H  116  1  0.92837600  0.09577500  0.69558600  1
  H  119  1  0.99382400  0.12456200  0.66963900  1
  H  120  1  0.00398500  0.15548300  0.67902900  1
  H  121  1  0.04249400  0.08939100  0.69376600  1
  H  122  1  0.08741300  0.09582600  0.71948100  1
  H  125  1  0.06970100  0.16519000  0.71628400  1
  H  126  1  0.10065900  0.14195300  0.73470800  1
  H  128  1  0.95186800  0.17153900  0.71744800  1
  H  129  1  0.90943700  0.15220100  0.73656200  1
  H  131  1  0.03664100  0.11278100  0.76002400  1
  H  132  1  0.95798800  0.11638300  0.76073700  1
  H  137  1  0.89542200  0.29478000  0.10665300  1
  H  138  1  0.92840800  0.32227900  0.09578700  1
  H  141  1  0.99385000  0.34822000  0.12457900  1
  H  142  1  0.00400800  0.33882200  0.15549900  1
  H  143  1  0.04252900  0.32409800  0.08940400  1
  H  144  1  0.08744300  0.29838300  0.09583500  1
  H  147  1  0.06972300  0.30156600  0.16519800  1
  H  148  1  0.10067900  0.28314700  0.14195700  1
  H  150  1  0.95188800  0.30040100  0.17154600  1
  H  151  1  0.90946000  0.28129100  0.15220400  1
  H  153  1  0.03666100  0.25783500  0.11278100  1
  H  154  1  0.95801000  0.25712300  0.11638100  1
  H  159  1  0.89539400  0.72309900  0.91117400  1
  H  160  1  0.92837600  0.69560100  0.92204400  1
  H  163  1  0.99381400  0.66965200  0.89325800  1
  H  164  1  0.00397700  0.67904400  0.86233700  1
  H  165  1  0.04249300  0.69377700  0.92843000  1
  H  166  1  0.08741900  0.71949000  0.92199400  1
  H  169  1  0.06970100  0.71629500  0.85263000  1
  H  170  1  0.10066300  0.73471700  0.87586700  1
  H  172  1  0.95186600  0.71746500  0.84628100  1
  H  173  1  0.90944200  0.73657900  0.86562200  1
  H  175  1  0.03665000  0.76003500  0.90504000  1
  H  176  1  0.95799900  0.76075200  0.90143700  1
  H  181  1  0.58881000  0.60031300  0.79622500  1
  H  182  1  0.54890700  0.59059200  0.82244700  1
  H  185  1  0.49340400  0.62139200  0.84832500  1
  H  186  1  0.49578100  0.65274000  0.84185900  1
  H  187  1  0.43017700  0.59278500  0.82203200  1
  H  188  1  0.39379700  0.60475100  0.79556300  1
  H  191  1  0.43923500  0.66954600  0.80159500  1
  H  192  1  0.39732000  0.64879600  0.78384100  1
  H  194  1  0.55632000  0.66740300  0.80034000  1
  H  195  1  0.59219700  0.64472700  0.78282800  1
  H  197  1  0.45211000  0.61531200  0.75742300  1
  H  198  1  0.53131600  0.61418600  0.75726300  1
  H  203  1  0.58884400  0.41752700  0.22161900  1
  H  204  1  0.54893800  0.42725600  0.19540100  1
  H  207  1  0.49343000  0.39645700  0.16951800  1
  H  208  1  0.49580600  0.36510900  0.17598100  1
  H  209  1  0.43020600  0.42506600  0.19581300  1
  H  210  1  0.39382700  0.41309600  0.22227900  1
  H  213  1  0.43925700  0.34830100  0.21624500  1
  H  214  1  0.39734200  0.36905200  0.23400100  1
  H  216  1  0.55633600  0.35044300  0.21749800  1
  H  217  1  0.59221500  0.37311400  0.23501400  1
  H  219  1  0.45213400  0.40253000  0.26042000  1
  H  220  1  0.53134300  0.40365600  0.26058100  1
  H  225  1  0.58879200  0.22154600  0.60029700  1
  H  226  1  0.54882800  0.19533200  0.59059200  1
  H  229  1  0.49331400  0.16948000  0.62141600  1
  H  230  1  0.49573400  0.17596000  0.65276200  1
  H  231  1  0.43011200  0.19578400  0.59281100  1
  H  232  1  0.39379100  0.22227000  0.60477200  1
  H  235  1  0.43928800  0.21624000  0.66956300  1
  H  236  1  0.39738700  0.23400400  0.64881400  1
  H  238  1  0.55638400  0.21745200  0.66739600  1
  H  239  1  0.59226400  0.23495000  0.64471000  1
  H  241  1  0.45218800  0.26039300  0.61531600  1
  H  242  1  0.53139400  0.26052900  0.61417300  1
  H  247  1  0.58882600  0.79624500  0.41752800  1
  H  248  1  0.54890400  0.82246200  0.42724700  1
  H  251  1  0.49339000  0.84833400  0.39644200  1
  H  252  1  0.49577200  0.84186300  0.36509500  1
  H  253  1  0.43017400  0.82203800  0.42505300  1
  H  254  1  0.39381400  0.79556300  0.41308900  1
  H  257  1  0.43925200  0.80159500  0.34829400  1
  H  258  1  0.39734300  0.78383800  0.36904400  1
  H  260  1  0.55634100  0.80035300  0.35043900  1
  H  261  1  0.59222400  0.78284400  0.37311500  1
  H  263  1  0.45214800  0.75742900  0.40253200  1
  H  264  1  0.53135400  0.75727600  0.40366000  1
  H  269  1  0.39381000  0.41307200  0.79558900  1
  H  270  1  0.43018300  0.42503100  0.82206200  1
  H  273  1  0.49340100  0.39641700  0.84835100  1
  H  274  1  0.49578300  0.36507100  0.84187600  1
  H  275  1  0.54891200  0.42722500  0.82248200  1
  H  276  1  0.58882400  0.41750800  0.79626100  1
  H  279  1  0.55633400  0.35042000  0.80036000  1
  H  280  1  0.59221500  0.37309900  0.78285300  1
  H  282  1  0.43924900  0.34827300  0.80160600  1
  H  283  1  0.39733800  0.36902900  0.78385400  1
  H  285  1  0.53134300  0.40364700  0.75729300  1
  H  286  1  0.45213400  0.40251900  0.75744900  1
  H  291  1  0.39382300  0.60473300  0.22222900  1
  H  292  1  0.43024100  0.59277600  0.19576700  1
  H  295  1  0.49347600  0.62140100  0.16949200  1
  H  296  1  0.49582200  0.65274900  0.17596600  1
  H  297  1  0.54897200  0.59060100  0.19537500  1
  H  298  1  0.58884400  0.60032500  0.22160500  1
  H  301  1  0.55629100  0.66740900  0.21750000  1
  H  302  1  0.59216800  0.64473400  0.23501400  1
  H  304  1  0.43921100  0.66953500  0.21622500  1
  H  305  1  0.39729300  0.64877400  0.23396600  1
  H  307  1  0.53128900  0.61417900  0.26056000  1
  H  308  1  0.45208200  0.61529400  0.26038500  1
  H  313  1  0.39381400  0.79560900  0.60475900  1
  H  314  1  0.43018700  0.82208400  0.59280000  1
  H  317  1  0.49340400  0.84837100  0.62142000  1
  H  318  1  0.49577900  0.84189300  0.65276600  1
  H  319  1  0.54891400  0.82250200  0.59061000  1
  H  320  1  0.58882800  0.79628200  0.60032600  1
  H  323  1  0.55632700  0.80037900  0.66741600  1
  H  324  1  0.59220800  0.78287200  0.64473800  1
  H  326  1  0.43923900  0.80162600  0.66955800  1
  H  327  1  0.39732900  0.78387600  0.64880100  1
  H  329  1  0.53133800  0.75731300  0.61418600  1
  H  330  1  0.45213200  0.75747000  0.61531000  1
  H  335  1  0.39378700  0.22225700  0.41305900  1
  H  336  1  0.43011200  0.19577300  0.42502200  1
  H  339  1  0.49331200  0.16946900  0.39641500  1
  H  340  1  0.49572500  0.17594600  0.36506900  1
  H  341  1  0.54883000  0.19532300  0.42723400  1
  H  342  1  0.58879000  0.22153500  0.41752700  1
  H  345  1  0.55636300  0.21744100  0.35043000  1
  H  346  1  0.59225100  0.23493900  0.37311400  1
  H  348  1  0.43927400  0.21622700  0.34826600  1
  H  349  1  0.39737000  0.23399000  0.36901700  1
  H  351  1  0.53138300  0.26051800  0.40365200  1
  H  352  1  0.45217900  0.26038000  0.40251300  1
  H  359  1  0.02226400  0.19576000  0.27997500  1
  H  363  1  0.00220200  0.14065900  0.22540900  1
  H  368  1  0.02226400  0.28000400  0.19575300  1
  H  370  1  0.00220900  0.22545500  0.14063600  1
  H  377  1  0.02218300  0.82210000  0.73784300  1
  H  381  1  0.00221100  0.87720100  0.79241500  1
  H  386  1  0.02223200  0.73785600  0.82207100  1
  H  388  1  0.00222000  0.79241300  0.87718300  1
  H  395  1  0.02227300  0.73785600  0.19574300  1
  H  399  1  0.00222800  0.79241500  0.14063900  1
  H  404  1  0.02219600  0.82208400  0.27998600  1
  H  406  1  0.00219500  0.87719800  0.22543200  1
  H  413  1  0.02226000  0.27997500  0.82208900  1
  H  417  1  0.00222400  0.22540900  0.87719000  1
  H  422  1  0.02225600  0.19574700  0.73784300  1
  H  424  1  0.00222400  0.14063700  0.79239800  1
  H  431  1  0.49994500  0.69630000  0.78048900  1
  H  435  1  0.49274800  0.64091500  0.72563100  1
  H  440  1  0.49995400  0.78051300  0.69630700  1
  H  442  1  0.49275600  0.72567400  0.64090400  1
  H  449  1  0.49996100  0.32154200  0.23734800  1
  H  453  1  0.49277900  0.37692300  0.29220900  1
  H  458  1  0.50005100  0.23732700  0.32152700  1
  H  460  1  0.49285300  0.29216400  0.37693000  1
  H  467  1  0.50008200  0.23733300  0.69630000  1
  H  471  1  0.49286800  0.29217700  0.64090400  1
  H  476  1  0.49997700  0.32152600  0.78049600  1
  H  478  1  0.49278600  0.37692300  0.72565200  1
  H  485  1  0.49997700  0.78048900  0.32154200  1
  H  489  1  0.49277700  0.72563900  0.37693600  1
  H  494  1  0.49987300  0.69629400  0.23734400  1
  H  496  1  0.49268700  0.64089700  0.29219000  1
  H  503  1  0.82443000  0.13592000  0.29908100  1
  H  507  1  0.91709500  0.15133700  0.36536600  1
  H  512  1  0.57914100  0.17588800  0.34443600  1
  H  514  1  0.66216300  0.19119800  0.41283400  1
  H  521  1  0.82441900  0.88195400  0.71875000  1
  H  525  1  0.91706000  0.86656300  0.65245400  1
  H  530  1  0.57917400  0.84191300  0.67342800  1
  H  532  1  0.66214000  0.82667300  0.60500200  1
  H  539  1  0.82446600  0.71874800  0.13590400  1
  H  543  1  0.91711100  0.65245600  0.15131200  1
  H  548  1  0.57918600  0.67341900  0.17595700  1
  H  550  1  0.66214700  0.60499700  0.19119300  1
  H  557  1  0.82445700  0.29908100  0.88194000  1
  H  561  1  0.91711300  0.36536600  0.86651500  1
  H  566  1  0.57916100  0.34442000  0.84191700  1
  H  568  1  0.66216300  0.41281800  0.82662900  1
  H  575  1  0.17334100  0.89754600  0.30309200  1
  H  579  1  0.08028100  0.87429300  0.36702100  1
  H  584  1  0.41265000  0.84439200  0.34297800  1
  H  586  1  0.32543700  0.82736400  0.41018000  1
  H  593  1  0.17335100  0.12028100  0.71476700  1
  H  597  1  0.08031000  0.14348000  0.65080700  1
  H  602  1  0.41260900  0.17346000  0.67489300  1
  H  604  1  0.32543200  0.19044600  0.60767300  1
  H  611  1  0.17335500  0.30310800  0.12026500  1
  H  615  1  0.08033100  0.36703700  0.14352400  1
  H  620  1  0.41269600  0.34299900  0.17343200  1
  H  622  1  0.32550000  0.41020600  0.19045000  1
  H  629  1  0.17331100  0.71474800  0.89755900  1
  H  633  1  0.08028200  0.65081800  0.87432800  1
  H  638  1  0.41267200  0.67485400  0.84440100  1
  H  640  1  0.32546300  0.60765200  0.82738400  1
  H  647  1  0.17333800  0.89758300  0.71476300  1
  H  651  1  0.08028500  0.87436300  0.65082300  1
  H  656  1  0.41264600  0.84442700  0.67487600  1
  H  658  1  0.32544600  0.82741200  0.60766900  1
  H  665  1  0.17334100  0.12028700  0.30304600  1
  H  669  1  0.08029100  0.14348100  0.36700400  1
  H  674  1  0.41260500  0.17344800  0.34293600  1
  H  676  1  0.32541900  0.19043700  0.41015500  1
  H  683  1  0.17333700  0.30305500  0.89757900  1
  H  687  1  0.08031300  0.36699500  0.87434100  1
  H  692  1  0.41267200  0.34295800  0.84441400  1
  H  694  1  0.32546700  0.41016600  0.82740800  1
  H  701  1  0.17333700  0.71475000  0.12026200  1
  H  705  1  0.08031000  0.65082100  0.14348800  1
  H  710  1  0.41270300  0.67484900  0.17340800  1
  H  712  1  0.32550700  0.60763800  0.19040600  1
  H  719  1  0.82444200  0.13590100  0.71872700  1
  H  723  1  0.91710200  0.15132900  0.65244500  1
  H  728  1  0.57915900  0.17589400  0.67338900  1
  H  730  1  0.66217000  0.19121100  0.60499300  1
  H  737  1  0.82441200  0.88193200  0.29910900  1
  H  741  1  0.91707600  0.86651000  0.36539300  1
  H  746  1  0.57916800  0.84189300  0.34444000  1
  H  748  1  0.66217000  0.82661400  0.41285100  1
  H  755  1  0.82443900  0.71874000  0.88192100  1
  H  759  1  0.91711100  0.65246200  0.86648800  1
  H  764  1  0.57915400  0.67338700  0.84189600  1
  H  766  1  0.66217400  0.60499700  0.82659200  1
  H  773  1  0.82447300  0.29912700  0.13590500  1
  H  777  1  0.91712000  0.36541000  0.15134000  1
  H  782  1  0.57917700  0.34444900  0.17594500  1
  H  784  1  0.66215400  0.41285600  0.19122800  1
  H  791  1  0.07226500  0.94859400  0.26640500  1
  H  795  1  0.89300100  0.95199800  0.29272300  1
  H  800  1  0.07226700  0.06924600  0.26638300  1
  H  802  1  0.89298600  0.06585400  0.29269000  1
  H  809  1  0.07230400  0.06924400  0.75142300  1
  H  813  1  0.89298800  0.06585000  0.72516500  1
  H  818  1  0.07229000  0.94861300  0.75144300  1
  H  820  1  0.89296500  0.95200900  0.72518500  1
  H  827  1  0.07227700  0.75145800  0.94856100  1
  H  831  1  0.89302600  0.72514100  0.95198200  1
  H  836  1  0.07227200  0.75145600  0.06924600  1
  H  838  1  0.89301000  0.72516700  0.06584800  1
  H  845  1  0.07228600  0.26641400  0.06926700  1
  H  849  1  0.89303200  0.29271600  0.06585400  1
  H  854  1  0.07227200  0.26636000  0.94858100  1
  H  856  1  0.89301400  0.29266000  0.95198700  1
  H  863  1  0.57958100  0.44871200  0.77003700  1
  H  867  1  0.39338800  0.45190600  0.78628700  1
  H  872  1  0.57957200  0.56911100  0.77001700  1
  H  874  1  0.39337000  0.56591700  0.78626100  1
  H  881  1  0.57961400  0.56911100  0.24779200  1
  H  885  1  0.39339700  0.56592100  0.23159400  1
  H  890  1  0.57961400  0.44873300  0.24781800  1
  H  892  1  0.39339100  0.45191700  0.23161800  1
  H  899  1  0.57952700  0.24781000  0.44868800  1
  H  903  1  0.39337800  0.23150200  0.45191200  1
  H  908  1  0.57951200  0.24782100  0.56913100  1
  H  910  1  0.39336600  0.23154400  0.56592800  1
  H  917  1  0.57956600  0.77003900  0.56914600  1
  H  921  1  0.39340200  0.78630200  0.56593000  1
  H  926  1  0.57956600  0.77000200  0.44870900  1
  H  928  1  0.39339700  0.78625000  0.45191500  1
  N  355  1  0.01024600  0.17599700  0.21353000  1
  N  364  1  0.01024600  0.21356500  0.17597100  1
  N  366  1  0.02765800  0.24903600  0.23198600  1
  N  367  1  0.02765300  0.23200300  0.24901600  1
  N  373  1  0.01023200  0.84186100  0.80429100  1
  N  382  1  0.01024700  0.80429700  0.84184700  1
  N  384  1  0.02760800  0.76882300  0.78583200  1
  N  385  1  0.02759900  0.78585600  0.76880200  1
  N  391  1  0.01023100  0.80429700  0.17597700  1
  N  400  1  0.01019500  0.84185900  0.21354500  1
  N  402  1  0.02759400  0.78584600  0.24901900  1
  N  403  1  0.02761200  0.76881500  0.23198600  1
  N  409  1  0.01022800  0.21353000  0.84185000  1
  N  418  1  0.01024100  0.17597300  0.80428400  1
  N  420  1  0.02763600  0.23198600  0.76881000  1
  N  421  1  0.02763000  0.24901800  0.78584500  1
  N  427  1  0.49555400  0.67641200  0.71393200  1
  N  436  1  0.49556300  0.71396100  0.67639500  1
  N  438  1  0.50199000  0.74968100  0.73264400  1
  N  439  1  0.50198600  0.73264800  0.74967200  1
  N  445  1  0.49561700  0.34142800  0.30390600  1
  N  454  1  0.49566200  0.30387700  0.34143900  1
  N  456  1  0.50207600  0.26815900  0.28519100  1
  N  457  1  0.50205100  0.28519400  0.26816300  1
  N  463  1  0.49567400  0.30388600  0.67639900  1
  N  472  1  0.49562200  0.34143000  0.71394300  1
  N  474  1  0.50207100  0.28518700  0.74967200  1
  N  475  1  0.50209600  0.26815700  0.73264000  1
  N  481  1  0.49555200  0.71393400  0.34144100  1
  N  490  1  0.49550200  0.67639100  0.30389700  1
  N  492  1  0.50193800  0.73263500  0.26816800  1
  N  493  1  0.50196300  0.74966400  0.28520000  1
  N  499  1  0.82655400  0.15684500  0.36534500  1
  N  508  1  0.71313400  0.17409600  0.38663800  1
  N  510  1  0.67050700  0.15586800  0.32486100  1
  N  511  1  0.72083000  0.14804200  0.31543400  1
  N  517  1  0.82651800  0.86105300  0.65248000  1
  N  526  1  0.71310500  0.84378400  0.63119500  1
  N  528  1  0.67050700  0.86197800  0.69298600  1
  N  529  1  0.72082400  0.86982400  0.70240600  1
  N  535  1  0.82657900  0.65248600  0.15683800  1
  N  544  1  0.71316800  0.63120800  0.17412400  1
  N  546  1  0.67056800  0.69299500  0.15591700  1
  N  547  1  0.72087800  0.70241100  0.14806200  1
  N  553  1  0.82657600  0.36533800  0.86099200  1
  N  562  1  0.71315400  0.38661700  0.84372100  1
  N  564  1  0.67055000  0.32483900  0.86194800  1
  N  565  1  0.72086600  0.31542200  0.86979400  1
  N  571  1  0.17065900  0.86960400  0.36675300  1
  N  580  1  0.27915700  0.84806700  0.38554500  1
  N  582  1  0.32535700  0.87071600  0.32575700  1
  N  583  1  0.27675400  0.88160000  0.31772200  1
  N  589  1  0.17069600  0.14817600  0.65107800  1
  N  598  1  0.27916700  0.16973300  0.63230300  1
  N  600  1  0.32534100  0.14711300  0.69210500  1
  N  601  1  0.27675300  0.13620900  0.70012800  1
  N  607  1  0.17071200  0.36677700  0.14820300  1
  N  616  1  0.27919300  0.38556300  0.16976200  1
  N  618  1  0.32540900  0.32577700  0.14710200  1
  N  619  1  0.27681600  0.31774700  0.13620700  1
  N  625  1  0.17067700  0.65108100  0.86961000  1
  N  634  1  0.27917100  0.63229400  0.84807800  1
  N  636  1  0.32537000  0.69208300  0.87072300  1
  N  637  1  0.27676700  0.70011800  0.88160800  1
  N  643  1  0.17066400  0.86964700  0.65109600  1
  N  652  1  0.27916700  0.84811300  0.63230500  1
  N  654  1  0.32535500  0.87075100  0.69209900  1
  N  655  1  0.27675000  0.88163400  0.70013500  1
  N  661  1  0.17067700  0.14817500  0.36673900  1
  N  670  1  0.27915000  0.16972700  0.38552100  1
  N  672  1  0.32533400  0.14710800  0.32571800  1
  N  673  1  0.27674400  0.13620800  0.31769200  1
  N  679  1  0.17069200  0.36673100  0.86965800  1
  N  688  1  0.27916300  0.38551700  0.84809300  1
  N  690  1  0.32538600  0.32573000  0.87074000  1
  N  691  1  0.27679400  0.31769600  0.88163400  1
  N  697  1  0.17070300  0.65108100  0.14820000  1
  N  706  1  0.27921100  0.63228400  0.16971800  1
  N  708  1  0.32540200  0.69207900  0.14708800  1
  N  709  1  0.27679700  0.70011700  0.13620600  1
  N  715  1  0.82656100  0.15684100  0.65246900  1
  N  724  1  0.71313800  0.17410400  0.63118400  1
  N  726  1  0.67052000  0.15586400  0.69295700  1
  N  727  1  0.72084400  0.14803300  0.70238000  1
  N  733  1  0.82653400  0.86100100  0.36537100  1
  N  742  1  0.71313000  0.84373000  0.38665800  1
  N  744  1  0.67050400  0.86195400  0.32487800  1
  N  745  1  0.72081700  0.86979800  0.31545800  1
  N  751  1  0.82657900  0.65248600  0.86096400  1
  N  760  1  0.71318400  0.63120400  0.84366900  1
  N  762  1  0.67054000  0.69297500  0.86191900  1
  N  763  1  0.72085000  0.70239500  0.86976800  1
  N  769  1  0.82658300  0.36538200  0.15686100  1
  N  778  1  0.71315200  0.38666000  0.17413000  1
  N  780  1  0.67056300  0.32488000  0.15590100  1
  N  781  1  0.72088000  0.31546400  0.14805300  1
  N  787  1  0.93008900  0.98350800  0.28119900  1
  N  796  1  0.93006600  0.03434000  0.28117800  1
  N  798  1  0.07973000  0.02104700  0.25922400  1
  N  799  1  0.07974700  0.99680200  0.25923900  1
  N  805  1  0.93007100  0.03433700  0.73669300  1
  N  814  1  0.93004400  0.98351600  0.73671900  1
  N  816  1  0.07974800  0.99680600  0.75863100  1
  N  817  1  0.07974800  0.02105000  0.75862500  1
  N  823  1  0.93011600  0.73666200  0.98349200  1
  N  832  1  0.93012000  0.73664000  0.03431400  1
  N  834  1  0.07977400  0.75861800  0.02102700  1
  N  835  1  0.07977800  0.75862000  0.99678200  1
  N  841  1  0.93012000  0.28120600  0.03432800  1
  N  850  1  0.93011800  0.28116500  0.98351000  1
  N  852  1  0.07977000  0.25920800  0.99680600  1
  N  853  1  0.07978300  0.25923000  0.02105100  1
  N  859  1  0.43377700  0.48346100  0.77704200  1
  N  868  1  0.43375500  0.53436300  0.77702400  1
  N  870  1  0.58913200  0.52103800  0.76333000  1
  N  871  1  0.58914500  0.49679500  0.76334700  1
  N  877  1  0.43378600  0.53436300  0.24084000  1
  N  886  1  0.43377000  0.48347000  0.24086800  1
  N  888  1  0.58916600  0.49680000  0.25452600  1
  N  889  1  0.58916300  0.52104200  0.25452100  1
  N  895  1  0.43376600  0.24075300  0.48346400  1
  N  904  1  0.43375900  0.24074100  0.53435400  1
  N  906  1  0.58911400  0.25449700  0.52103100  1
  N  907  1  0.58911800  0.25449500  0.49678900  1
  N  913  1  0.43378800  0.77705700  0.53437000  1
  N  922  1  0.43380100  0.77703500  0.48348100  1
  N  924  1  0.58915900  0.76332100  0.49681000  1
  N  925  1  0.58916300  0.76334000  0.52105300  1
