# generated using pymatgen
data_H7C16N4O3
_symmetry_space_group_name_H-M   'P 1'
_cell_length_a   19.07790000
_cell_length_b   89.60410000
_cell_length_c   89.60410000
_cell_angle_alpha   90.00000000
_cell_angle_beta   90.18330000
_cell_angle_gamma   89.81670000
_symmetry_Int_Tables_number   1
_chemical_formula_structural   H7C16N4O3
_chemical_formula_sum   'H448 C1024 N256 O192'
_cell_volume   153172.88318574
_cell_formula_units_Z   64
loop_
 _symmetry_equiv_pos_site_id
 _symmetry_equiv_pos_as_xyz
  1  'x, y, z'
loop_
 _atom_site_type_symbol
 _atom_site_label
 _atom_site_symmetry_multiplicity
 _atom_site_fract_x
 _atom_site_fract_y
 _atom_site_fract_z
 _atom_site_occupancy
  C  1  1  0.08819100  0.91607600  0.06087800  1
  C  2  1  0.13552500  0.91912700  0.04898600  1
  C  3  1  0.12337400  0.93049900  0.03833100  1
  C  4  1  0.06038000  0.93870300  0.03869400  1
  C  5  1  0.00849200  0.93574900  0.04953500  1
  C  6  1  0.02482400  0.92494600  0.06078600  1
  C  9  1  0.10439900  0.90438900  0.07204300  1
  C  10  1  0.15573500  0.89276250  0.07003900  1
  C  11  1  0.16954900  0.88147800  0.08088700  1
  C  12  1  0.13308200  0.88196350  0.09460500  1
  C  13  1  0.07987900  0.89264000  0.09672500  1
  C  14  1  0.06686800  0.90363300  0.08573400  1
  C  25  1  0.07320000  0.05401200  0.41099100  1
  C  26  1  0.12050800  0.05089200  0.42295250  1
  C  27  1  0.10832000  0.03954500  0.43360200  1
  C  28  1  0.04535700  0.03141750  0.43314300  1
  C  29  1  0.99350600  0.03443650  0.42222050  1
  C  30  1  0.00984300  0.04522250  0.41099450  1
  C  33  1  0.08944900  0.06568550  0.39984850  1
  C  34  1  0.14085700  0.07724000  0.40190950  1
  C  35  1  0.15493300  0.08849000  0.39106650  1
  C  36  1  0.11818500  0.08806550  0.37732700  1
  C  37  1  0.06490900  0.07746900  0.37513650  1
  C  38  1  0.05190800  0.06649200  0.38610800  1
  C  49  1  0.08066900  0.16010800  0.16697650  1
  C  50  1  0.12799700  0.17200200  0.17009300  1
  C  51  1  0.11581600  0.18266700  0.18143800  1
  C  52  1  0.05285200  0.18229500  0.18956400  1
  C  53  1  0.00099600  0.17144450  0.18654650  1
  C  54  1  0.01731500  0.16019500  0.17576300  1
  C  57  1  0.09686800  0.14894500  0.15530800  1
  C  58  1  0.14819300  0.15095600  0.14374900  1
  C  59  1  0.16225700  0.14009600  0.13250700  1
  C  60  1  0.12576500  0.12637600  0.13294350  1
  C  61  1  0.07250400  0.12425400  0.14353850  1
  C  62  1  0.05938800  0.13524900  0.15450350  1
  C  73  1  0.06584500  0.80998700  0.30491050  1
  C  74  1  0.11312300  0.79802050  0.30184750  1
  C  75  1  0.10094400  0.78737350  0.29047900  1
  C  76  1  0.03797100  0.78782300  0.28228400  1
  C  77  1  0.98623600  0.79874150  0.28531050  1
  C  78  1  0.00247900  0.80998650  0.29607000  1
  C  81  1  0.08198000  0.82113500  0.31658700  1
  C  82  1  0.13332900  0.81906600  0.32821150  1
  C  83  1  0.14728800  0.82990500  0.33948350  1
  C  84  1  0.11064900  0.84365550  0.33899950  1
  C  85  1  0.05740100  0.84584550  0.32832800  1
  C  86  1  0.04440800  0.83487350  0.31733550  1
  C  97  1  0.64215200  0.91619100  0.41096100  1
  C  98  1  0.59411200  0.91927800  0.42270700  1
  C  99  1  0.60597400  0.93049300  0.43349100  1
  C  100  1  0.66792200  0.93900100  0.43316850  1
  C  101  1  0.71770200  0.93687700  0.42157250  1
  C  102  1  0.70332400  0.92554000  0.41080800  1
  C  105  1  0.62685200  0.90465300  0.39966150  1
  C  106  1  0.57384200  0.89350700  0.40132750  1
  C  107  1  0.55759800  0.88306000  0.38995800  1
  C  108  1  0.59502400  0.88314750  0.37645250  1
  C  109  1  0.64886800  0.89347800  0.37439100  1
  C  110  1  0.66387400  0.90391300  0.38590350  1
  C  121  1  0.65734800  0.05443050  0.06030400  1
  C  122  1  0.60922000  0.05142950  0.04849950  1
  C  123  1  0.62107000  0.04021650  0.03771300  1
  C  124  1  0.68298600  0.03161600  0.03812600  1
  C  125  1  0.73277400  0.03366100  0.04979200  1
  C  126  1  0.71847800  0.04500450  0.06054200  1
  C  129  1  0.64247200  0.06599450  0.07157800  1
  C  130  1  0.58984000  0.07725800  0.06981200  1
  C  131  1  0.57396400  0.08764750  0.08123500  1
  C  132  1  0.61095400  0.08758950  0.09477700  1
  C  133  1  0.66439800  0.07712950  0.09691400  1
  C  134  1  0.67933200  0.06665150  0.08541800  1
  C  145  1  0.64958600  0.16065800  0.30482150  1
  C  146  1  0.60159200  0.17247400  0.30172150  1
  C  147  1  0.61350200  0.18325000  0.29050600  1
  C  148  1  0.67542800  0.18283500  0.28199000  1
  C  149  1  0.72518200  0.17116450  0.28411700  1
  C  150  1  0.71075200  0.16042050  0.29545800  1
  C  153  1  0.63425400  0.14938400  0.31639000  1
  C  154  1  0.58128600  0.15105500  0.32756750  1
  C  155  1  0.56517800  0.13963050  0.33797750  1
  C  156  1  0.60280400  0.12613150  0.33791950  1
  C  157  1  0.65650400  0.12407300  0.32755050  1
  C  158  1  0.67127000  0.13557400  0.31710150  1
  C  169  1  0.66297800  0.80997900  0.16619800  1
  C  170  1  0.61426600  0.79833600  0.16922200  1
  C  171  1  0.62539600  0.78751350  0.18042450  1
  C  172  1  0.68754000  0.78753950  0.18883600  1
  C  173  1  0.73740600  0.79910300  0.18650400  1
  C  174  1  0.72428000  0.81001850  0.17538950  1
  C  177  1  0.64919800  0.82138400  0.15486250  1
  C  178  1  0.59693200  0.81962050  0.14361750  1
  C  179  1  0.58123400  0.83102050  0.13327450  1
  C  180  1  0.61809800  0.84455350  0.13341000  1
  C  181  1  0.67172600  0.84664000  0.14383050  1
  C  182  1  0.68650400  0.83512800  0.15428800  1
  C  193  1  0.65769000  0.05465850  0.91045150  1
  C  194  1  0.61141000  0.05217950  0.92256150  1
  C  195  1  0.62714900  0.04178200  0.93373800  1
  C  196  1  0.68724200  0.03276650  0.93323850  1
  C  197  1  0.73753900  0.03500000  0.92195250  1
  C  198  1  0.72082600  0.04563800  0.91051600  1
  C  201  1  0.63976800  0.06610150  0.89928450  1
  C  202  1  0.58824200  0.07768550  0.90138450  1
  C  203  1  0.57417800  0.08895150  0.89057700  1
  C  204  1  0.61059200  0.08846900  0.87686100  1
  C  205  1  0.66374400  0.07779450  0.87468750  1
  C  206  1  0.67699000  0.06679350  0.88560950  1
  C  217  1  0.64270900  0.91600650  0.56083600  1
  C  218  1  0.59642900  0.91855900  0.54867250  1
  C  219  1  0.61110100  0.92915100  0.53765950  1
  C  220  1  0.67197300  0.93789050  0.53809600  1
  C  221  1  0.72246200  0.93556900  0.54943350  1
  C  222  1  0.70580800  0.92494800  0.56085000  1
  C  225  1  0.62472500  0.90456950  0.57196600  1
  C  226  1  0.57310600  0.89305950  0.56980950  1
  C  227  1  0.55878400  0.88182950  0.58061300  1
  C  228  1  0.59547000  0.88224950  0.59435150  1
  C  229  1  0.64869400  0.89284400  0.59659600  1
  C  230  1  0.66193000  0.90382800  0.58569200  1
  C  241  1  0.66290400  0.81026350  0.80462900  1
  C  242  1  0.61557800  0.79837000  0.80150550  1
  C  243  1  0.62769600  0.78771650  0.79014500  1
  C  244  1  0.69069600  0.78806000  0.78204650  1
  C  245  1  0.74251600  0.79887950  0.78515400  1
  C  246  1  0.72627200  0.81017100  0.79587150  1
  C  249  1  0.64679800  0.82142750  0.81628500  1
  C  250  1  0.59550200  0.81941150  0.82784200  1
  C  251  1  0.58145800  0.83027100  0.83908150  1
  C  252  1  0.61795200  0.84399050  0.83864250  1
  C  253  1  0.67120800  0.84611250  0.82804650  1
  C  254  1  0.68431800  0.83511850  0.81708350  1
  C  265  1  0.64800200  0.16040050  0.66666667  1
  C  266  1  0.60070600  0.17236300  0.66973000  1
  C  267  1  0.61292000  0.18301150  0.68109300  1
  C  268  1  0.67587800  0.18254350  0.68930800  1
  C  269  1  0.72767200  0.17159800  0.68636700  1
  C  270  1  0.71136000  0.16039700  0.67554200  1
  C  273  1  0.63178000  0.14925600  0.65498300  1
  C  274  1  0.58040000  0.15132100  0.64335750  1
  C  275  1  0.56642000  0.14048300  0.63208350  1
  C  276  1  0.60305400  0.12673100  0.63256500  1
  C  277  1  0.65630000  0.12454200  0.64323700  1
  C  278  1  0.66931000  0.13551450  0.65422950  1
  C  289  1  0.06945800  0.05455400  0.56085050  1
  C  290  1  0.11619200  0.05202100  0.54884300  1
  C  291  1  0.09966500  0.04211500  0.53729600  1
  C  292  1  0.04144400  0.03255800  0.53799350  1
  C  293  1  0.99399800  0.03385150  0.55012950  1
  C  294  1  0.00855100  0.04507250  0.56103700  1
  C  297  1  0.08646300  0.06585100  0.57215250  1
  C  298  1  0.13958900  0.07697050  0.57040150  1
  C  299  1  0.15606200  0.08738800  0.58174750  1
  C  300  1  0.11869500  0.08730050  0.59524550  1
  C  301  1  0.06488800  0.07697350  0.59733950  1
  C  302  1  0.04972300  0.06652850  0.58589050  1
  C  313  1  0.08428200  0.91557600  0.91102000  1
  C  314  1  0.13112500  0.91802750  0.92307950  1
  C  315  1  0.11463400  0.92794400  0.93461200  1
  C  316  1  0.05641400  0.93758000  0.93384050  1
  C  317  1  0.00894300  0.93635900  0.92164350  1
  C  318  1  0.02341300  0.92513100  0.91075100  1
  C  321  1  0.10085500  0.90425100  0.89974750  1
  C  322  1  0.15361300  0.89302100  0.90161600  1
  C  323  1  0.16973300  0.88265400  0.89023500  1
  C  324  1  0.13282500  0.88271150  0.87668550  1
  C  325  1  0.07940100  0.89316350  0.87449850  1
  C  326  1  0.06429300  0.90365300  0.88592700  1
  C  337  1  0.06606200  0.80972700  0.66635550  1
  C  338  1  0.11461600  0.79800800  0.66949550  1
  C  339  1  0.10340300  0.78721500  0.68071000  1
  C  340  1  0.04121100  0.78732400  0.68903050  1
  C  341  1  0.99137800  0.79895950  0.68660700  1
  C  342  1  0.00472100  0.80985250  0.67549300  1
  C  345  1  0.08033400  0.82110050  0.65498100  1
  C  346  1  0.13296600  0.81940300  0.64380200  1
  C  347  1  0.14869600  0.83085100  0.63345850  1
  C  348  1  0.11098200  0.84432850  0.63357000  1
  C  349  1  0.05734300  0.84637550  0.64394650  1
  C  350  1  0.04285700  0.83486750  0.65437550  1
  C  361  1  0.07879900  0.16039050  0.80500000  1
  C  362  1  0.12695500  0.17212900  0.80201150  1
  C  363  1  0.11511900  0.18293350  0.79080700  1
  C  364  1  0.05320800  0.18260500  0.78220850  1
  C  365  1  0.00340100  0.17101000  0.78425150  1
  C  366  1  0.01766100  0.16023850  0.79558800  1
  C  369  1  0.09364900  0.14908550  0.81653100  1
  C  370  1  0.14628500  0.15082150  0.82777050  1
  C  371  1  0.16233600  0.13944000  0.83817850  1
  C  372  1  0.12550200  0.12589450  0.83809950  1
  C  373  1  0.07183900  0.12379350  0.82768450  1
  C  374  1  0.05679300  0.13529800  0.81720800  1
  C  385  1  0.07317900  0.41608550  0.56086800  1
  C  386  1  0.12051700  0.41913700  0.54897550  1
  C  387  1  0.10836300  0.43050850  0.53832050  1
  C  388  1  0.04536900  0.43871300  0.53868350  1
  C  389  1  0.99348000  0.43576000  0.54952450  1
  C  390  1  0.00981300  0.42495600  0.56077650  1
  C  393  1  0.08938800  0.40439850  0.57203300  1
  C  394  1  0.14072400  0.39277200  0.57002900  1
  C  395  1  0.15454200  0.38148800  0.58087700  1
  C  396  1  0.11807500  0.38197350  0.59459450  1
  C  397  1  0.06487200  0.39265050  0.59671450  1
  C  398  1  0.05185700  0.40364350  0.58572350  1
  C  409  1  0.08820900  0.55400150  0.91100150  1
  C  410  1  0.13551900  0.55088150  0.92296300  1
  C  411  1  0.12333200  0.53953500  0.93361200  1
  C  412  1  0.06036800  0.53140800  0.93315350  1
  C  413  1  0.00851700  0.53442600  0.92223150  1
  C  414  1  0.02485100  0.54521250  0.91100500  1
  C  417  1  0.10445800  0.56567500  0.89985900  1
  C  418  1  0.15586700  0.57722950  0.90192100  1
  C  419  1  0.16993600  0.58847900  0.89107750  1
  C  420  1  0.13319600  0.58805500  0.87733750  1
  C  421  1  0.07992500  0.57745800  0.87514750  1
  C  422  1  0.06692000  0.56648150  0.88611950  1
  C  433  1  0.06353300  0.65984000  0.66661783  1
  C  434  1  0.10973800  0.67197100  0.66911000  1
  C  435  1  0.09352400  0.68330350  0.67928100  1
  C  436  1  0.03405800  0.68268500  0.68838400  1
  C  437  1  0.98389500  0.67138400  0.68604650  1
  C  438  1  0.00070200  0.65981400  0.67560650  1
  C  441  1  0.08144700  0.64869300  0.65516900  1
  C  442  1  0.13293700  0.65080650  0.64364800  1
  C  443  1  0.14723800  0.63998700  0.63242650  1
  C  444  1  0.11080600  0.62626850  0.63286250  1
  C  445  1  0.05759800  0.62409150  0.64345450  1
  C  446  1  0.04425900  0.63501700  0.65442500  1
  C  457  1  0.07854300  0.31023350  0.80527200  1
  C  458  1  0.12479700  0.29805850  0.80278450  1
  C  459  1  0.10902500  0.28690200  0.79238800  1
  C  460  1  0.04893900  0.28749550  0.78336850  1
  C  461  1  0.99873200  0.29887650  0.78559200  1
  C  462  1  0.01541500  0.31026300  0.79625250  1
  C  465  1  0.09648000  0.32137500  0.81671800  1
  C  466  1  0.14804700  0.31921200  0.82830050  1
  C  467  1  0.16227800  0.33001050  0.83955450  1
  C  468  1  0.12570200  0.34376000  0.83907650  1
  C  469  1  0.07250200  0.34600450  0.82840700  1
  C  470  1  0.05925800  0.33510050  0.81740700  1
  C  481  1  0.65716000  0.41618300  0.91097500  1
  C  482  1  0.60914000  0.41926800  0.92272600  1
  C  483  1  0.62104000  0.43047350  0.93352150  1
  C  484  1  0.68295400  0.43898900  0.93318850  1
  C  485  1  0.73271400  0.43686800  0.92158650  1
  C  486  1  0.71833000  0.42553150  0.91082150  1
  C  489  1  0.64186000  0.40464550  0.89967400  1
  C  490  1  0.58885000  0.39349950  0.90134100  1
  C  491  1  0.57261000  0.38305100  0.88997300  1
  C  492  1  0.61003200  0.38313750  0.87646600  1
  C  493  1  0.66387400  0.39346900  0.87440350  1
  C  494  1  0.67888200  0.40390400  0.88591550  1
  C  505  1  0.64233600  0.55444100  0.56029450  1
  C  506  1  0.59420600  0.55143950  0.54848900  1
  C  507  1  0.60605400  0.54022650  0.53770350  1
  C  508  1  0.66797400  0.53162650  0.53811650  1
  C  509  1  0.71776400  0.53367150  0.54978200  1
  C  510  1  0.70346600  0.54501500  0.56053200  1
  C  513  1  0.62746000  0.56600550  0.57156750  1
  C  514  1  0.57482800  0.57726750  0.56980200  1
  C  515  1  0.55895100  0.58765800  0.58122450  1
  C  516  1  0.59594200  0.58760000  0.59476700  1
  C  517  1  0.64938200  0.57713950  0.59690350  1
  C  518  1  0.66432000  0.56666200  0.58540800  1
  C  529  1  0.66472400  0.66038100  0.80558300  1
  C  530  1  0.61736500  0.67235150  0.80302150  1
  C  531  1  0.63329400  0.68390700  0.79313550  1
  C  532  1  0.69202800  0.68347350  0.78379300  1
  C  533  1  0.73927200  0.67123350  0.78529350  1
  C  534  1  0.72588400  0.66023500  0.79633100  1
  C  537  1  0.64876200  0.64900400  0.81670600  1
  C  538  1  0.59604200  0.65080750  0.82785650  1
  C  539  1  0.58005400  0.63940600  0.83817700  1
  C  540  1  0.61765400  0.62591800  0.83806600  1
  C  541  1  0.67129200  0.62382100  0.82769900  1
  C  542  1  0.68595200  0.63526000  0.81725550  1
  C  553  1  0.65199100  0.31023850  0.66621550  1
  C  554  1  0.60509700  0.29824950  0.66865750  1
  C  555  1  0.62144300  0.28673200  0.67861800  1
  C  556  1  0.67982000  0.28738400  0.68820450  1
  C  557  1  0.72731800  0.29951000  0.68697800  1
  C  558  1  0.71288000  0.31042200  0.67575600  1
  C  561  1  0.63543500  0.32154250  0.65492000  1
  C  562  1  0.58266000  0.31971300  0.64371150  1
  C  563  1  0.56638900  0.33106400  0.63332700  1
  C  564  1  0.60320200  0.34460000  0.63340600  1
  C  565  1  0.65682000  0.34674700  0.64381700  1
  C  566  1  0.67201400  0.33530850  0.65430500  1
  C  577  1  0.64267500  0.55466850  0.41044000  1
  C  578  1  0.59639300  0.55218900  0.42255050  1
  C  579  1  0.61210500  0.54178350  0.43372100  1
  C  580  1  0.67223000  0.53277700  0.43322750  1
  C  581  1  0.72252700  0.53501050  0.42194150  1
  C  582  1  0.70581400  0.54564800  0.41050550  1
  C  585  1  0.62476000  0.56611200  0.39927450  1
  C  586  1  0.57323400  0.57769600  0.40137450  1
  C  587  1  0.55917200  0.58896150  0.39056750  1
  C  588  1  0.59558000  0.58847900  0.37685050  1
  C  589  1  0.64873200  0.57780450  0.37467700  1
  C  590  1  0.66197800  0.56680450  0.38559950  1
  C  601  1  0.65758400  0.41601250  0.06084000  1
  C  602  1  0.61124700  0.41863100  0.04868250  1
  C  603  1  0.62557900  0.42937850  0.03776900  1
  C  604  1  0.68694600  0.43795550  0.03814950  1
  C  605  1  0.73744700  0.43557050  0.04946450  1
  C  606  1  0.72074500  0.42493800  0.06086500  1
  C  609  1  0.63973900  0.40455450  0.07196950  1
  C  610  1  0.58811900  0.39304800  0.06981800  1
  C  611  1  0.57379000  0.38181800  0.08062200  1
  C  612  1  0.61048000  0.38223850  0.09436100  1
  C  613  1  0.66370200  0.39283350  0.09660450  1
  C  614  1  0.67694500  0.40381600  0.08570000  1
  C  625  1  0.65024100  0.31051350  0.30497250  1
  C  626  1  0.60409800  0.29838350  0.30243700  1
  C  627  1  0.62054700  0.28701150  0.29231850  1
  C  628  1  0.67983100  0.28770950  0.28315150  1
  C  629  1  0.73002500  0.29902400  0.28541650  1
  C  630  1  0.71334300  0.31045600  0.29603600  1
  C  633  1  0.63227700  0.32168350  0.31638750  1
  C  634  1  0.58078000  0.31957450  0.32790700  1
  C  635  1  0.56646800  0.33039450  0.33913050  1
  C  636  1  0.60289800  0.34411400  0.33869800  1
  C  637  1  0.65610600  0.34629000  0.32810400  1
  C  638  1  0.66945900  0.33536200  0.31713250  1
  C  649  1  0.66503200  0.66012700  0.16628800  1
  C  650  1  0.61879000  0.67230600  0.16877950  1
  C  651  1  0.63453400  0.68346200  0.17918000  1
  C  652  1  0.69462800  0.68288700  0.18818100  1
  C  653  1  0.74478600  0.67152800  0.18587500  1
  C  654  1  0.72817400  0.66010150  0.17527800  1
  C  657  1  0.64718400  0.64898200  0.15485600  1
  C  658  1  0.59564400  0.65114850  0.14327450  1
  C  659  1  0.58143800  0.64035000  0.13202250  1
  C  660  1  0.61801400  0.62660100  0.13250250  1
  C  661  1  0.67121200  0.62435750  0.14317300  1
  C  662  1  0.68444400  0.63526000  0.15417250  1
  C  673  1  0.08446600  0.55453700  0.06085850  1
  C  674  1  0.13108700  0.55197550  0.04884300  1
  C  675  1  0.11562300  0.54181250  0.03753600  1
  C  676  1  0.05634300  0.53248000  0.03800200  1
  C  677  1  0.00897400  0.53383450  0.05014350  1
  C  678  1  0.02356300  0.54506100  0.06105000  1
  C  681  1  0.10147300  0.56584250  0.07216000  1
  C  682  1  0.15460000  0.57696050  0.07041050  1
  C  683  1  0.17107400  0.58737800  0.08175600  1
  C  684  1  0.13371000  0.58729050  0.09525500  1
  C  685  1  0.07990300  0.57696250  0.09734900  1
  C  686  1  0.06473800  0.56651800  0.08589950  1
  C  697  1  0.06927000  0.41558650  0.41100950  1
  C  698  1  0.11611600  0.41803800  0.42306850  1
  C  699  1  0.09962400  0.42795500  0.43460200  1
  C  700  1  0.04140400  0.43759000  0.43383000  1
  C  701  1  0.99393600  0.43636950  0.42163250  1
  C  702  1  0.00840200  0.42514100  0.41074050  1
  C  705  1  0.08584400  0.40426100  0.39973750  1
  C  706  1  0.13860200  0.39303150  0.40160550  1
  C  707  1  0.15472100  0.38266450  0.39022500  1
  C  708  1  0.11781300  0.38272150  0.37667500  1
  C  709  1  0.06439300  0.39317350  0.37448850  1
  C  710  1  0.04928300  0.40366350  0.38591650  1
  C  721  1  0.07703900  0.30997900  0.16639200  1
  C  722  1  0.12382900  0.29792300  0.16894400  1
  C  723  1  0.10760500  0.28649350  0.17898000  1
  C  724  1  0.04903600  0.28717850  0.18844100  1
  C  725  1  0.00153600  0.29936250  0.18711550  1
  C  726  1  0.01613300  0.31024700  0.17588700  1
  C  729  1  0.09405100  0.32124450  0.15506150  1
  C  730  1  0.14716100  0.31947100  0.14392000  1
  C  731  1  0.16351000  0.33085900  0.13353400  1
  C  732  1  0.12595400  0.34435950  0.13359000  1
  C  733  1  0.07228300  0.34646850  0.14395100  1
  C  734  1  0.05733800  0.33503500  0.15441250  1
  C  745  1  0.06366600  0.66013350  0.30573650  1
  C  746  1  0.11117400  0.67202950  0.30328250  1
  C  747  1  0.09529800  0.68362050  0.29341000  1
  C  748  1  0.03661500  0.68326650  0.28398300  1
  C  749  1  0.98936000  0.67109250  0.28539450  1
  C  750  1  0.00253300  0.66007400  0.29643450  1
  C  753  1  0.07915700  0.64872550  0.31682650  1
  C  754  1  0.13153700  0.65059250  0.32804100  1
  C  755  1  0.14746700  0.63923450  0.33836200  1
  C  756  1  0.11063700  0.62570200  0.33823100  1
  C  757  1  0.05704600  0.62356300  0.32781500  1
  C  758  1  0.04211300  0.63500600  0.31734350  1
  C  769  1  0.82512000  0.86944150  0.13677350  1
  C  770  1  0.89395000  0.86413700  0.13434400  1
  C  771  1  0.94398600  0.87251050  0.12682050  1
  C  772  1  0.92925800  0.88711200  0.12155500  1
  C  773  1  0.85982000  0.89229200  0.12365450  1
  C  774  1  0.80877600  0.88366100  0.13075400  1
  C  777  1  0.98541200  0.85112800  0.13304850  1
  C  780  1  0.76655200  0.90473800  0.12403550  1
  C  783  1  0.78056000  0.85980500  0.14458900  1
  C  785  1  0.97673800  0.89596300  0.11348700  1
  C  787  1  0.81001400  0.10100600  0.33473800  1
  C  788  1  0.87886900  0.10620950  0.33725550  1
  C  789  1  0.92892800  0.09776650  0.34484600  1
  C  790  1  0.91424600  0.08318400  0.35009350  1
  C  791  1  0.84478800  0.07810300  0.34790200  1
  C  792  1  0.79372200  0.08680650  0.34073850  1
  C  795  1  0.97036800  0.11908850  0.33866950  1
  C  798  1  0.75152200  0.06578550  0.34740250  1
  C  801  1  0.76540600  0.11072250  0.32688700  1
  C  803  1  0.96178800  0.07426800  0.35822150  1
  C  805  1  0.81754600  0.08419700  0.11997100  1
  C  806  1  0.88639600  0.08662800  0.11476500  1
  C  807  1  0.93642400  0.09415500  0.12320600  1
  C  808  1  0.92168400  0.09942100  0.13778450  1
  C  809  1  0.85228300  0.09730550  0.14287950  1
  C  810  1  0.80126000  0.09019500  0.13418200  1
  C  813  1  0.97788000  0.08793750  0.10188100  1
  C  816  1  0.75900600  0.09695100  0.15518850  1
  C  819  1  0.77291200  0.07639400  0.11026900  1
  C  821  1  0.96914200  0.10753800  0.14665600  1
  C  823  1  0.80254000  0.88625400  0.35153050  1
  C  824  1  0.87140000  0.88372550  0.35682900  1
  C  825  1  0.92144800  0.87613700  0.34845200  1
  C  826  1  0.90671800  0.87087900  0.33385600  1
  C  827  1  0.83729600  0.87308600  0.32867250  1
  C  828  1  0.78627400  0.88027200  0.33729800  1
  C  831  1  0.96287800  0.88229300  0.36983650  1
  C  834  1  0.74403000  0.87358600  0.31622900  1
  C  837  1  0.75772200  0.89407100  0.36118100  1
  C  839  1  0.95421800  0.86275100  0.32500150  1
  C  841  1  0.91865400  0.10092950  0.83480600  1
  C  842  1  0.84982000  0.10623350  0.83723300  1
  C  843  1  0.79979200  0.09786050  0.84475050  1
  C  844  1  0.81455800  0.08326050  0.85000800  1
  C  845  1  0.88397400  0.07807600  0.84792350  1
  C  846  1  0.93500800  0.08670950  0.84082600  1
  C  849  1  0.75832600  0.11923950  0.83853050  1
  C  852  1  0.97719100  0.06562650  0.84754450  1
  C  855  1  0.96316600  0.11057350  0.82698750  1
  C  857  1  0.76702400  0.07441400  0.85804400  1
  C  859  1  0.90368400  0.86938000  0.63682650  1
  C  860  1  0.83485000  0.86416850  0.63431050  1
  C  861  1  0.78480600  0.87261200  0.62672600  1
  C  862  1  0.79953600  0.88719300  0.62148650  1
  C  863  1  0.86896200  0.89228100  0.62366150  1
  C  864  1  0.92000600  0.88357800  0.63082550  1
  C  867  1  0.74334200  0.85129150  0.63289500  1
  C  870  1  0.96219600  0.90460100  0.62415900  1
  C  873  1  0.94831600  0.85967250  0.64467450  1
  C  875  1  0.75194300  0.89610450  0.61339150  1
  C  877  1  0.92607000  0.88615800  0.85159000  1
  C  878  1  0.85726800  0.88373100  0.85681250  1
  C  879  1  0.80725600  0.87620450  0.84837350  1
  C  880  1  0.82201200  0.87093950  0.83379400  1
  C  881  1  0.89140800  0.87305300  0.82869400  1
  C  882  1  0.94241400  0.88016350  0.83738700  1
  C  885  1  0.76583200  0.88242550  0.86970100  1
  C  888  1  0.98471000  0.87341100  0.81639000  1
  C  891  1  0.97075200  0.89395500  0.86126350  1
  C  893  1  0.77456400  0.86282450  0.82492350  1
  C  895  1  0.91105800  0.08413850  0.62005150  1
  C  896  1  0.84224600  0.08666350  0.61473700  1
  C  897  1  0.79220800  0.09425200  0.62311300  1
  C  898  1  0.80695200  0.09950850  0.63770900  1
  C  899  1  0.87636800  0.09730350  0.64289750  1
  C  900  1  0.92737600  0.09011650  0.63427550  1
  C  903  1  0.75080400  0.08809250  0.60172500  1
  C  906  1  0.96966000  0.09680050  0.65533600  1
  C  909  1  0.95591800  0.07632750  0.61042900  1
  C  911  1  0.75946200  0.10763500  0.64656300  1
  C  913  1  0.81018600  0.36946800  0.63675450  1
  C  914  1  0.87898400  0.36415050  0.63432950  1
  C  915  1  0.92900600  0.37252300  0.62680650  1
  C  916  1  0.91426200  0.38712500  0.62154250  1
  C  917  1  0.84483000  0.39230900  0.62364100  1
  C  918  1  0.79379600  0.38368050  0.63073900  1
  C  921  1  0.97041600  0.35113750  0.63303700  1
  C  924  1  0.75154200  0.40475050  0.62402400  1
  C  927  1  0.76562200  0.35985150  0.64456700  1
  C  929  1  0.96174000  0.39597550  0.61347550  1
  C  931  1  0.82516200  0.60097000  0.83475700  1
  C  932  1  0.89395400  0.60619450  0.83727150  1
  C  933  1  0.94399200  0.59775250  0.84486150  1
  C  934  1  0.92929000  0.58316950  0.85010800  1
  C  935  1  0.85984200  0.57808200  0.84791900  1
  C  936  1  0.80880200  0.58677900  0.84075350  1
  C  939  1  0.98539600  0.61907850  0.83868100  1
  C  942  1  0.76653800  0.56577000  0.84741550  1
  C  945  1  0.78047200  0.61064900  0.82691700  1
  C  947  1  0.97682200  0.57425350  0.85823450  1
  C  949  1  0.80251200  0.58420450  0.61995900  1
  C  950  1  0.87135200  0.58663300  0.61474850  1
  C  951  1  0.92136800  0.59415350  0.62318950  1
  C  952  1  0.90658800  0.59941200  0.63776650  1
  C  953  1  0.83721400  0.59731200  0.64286700  1
  C  954  1  0.78620000  0.59020300  0.63416900  1
  C  957  1  0.96285200  0.58794550  0.60186700  1
  C  960  1  0.74397800  0.59696000  0.65517900  1
  C  963  1  0.75788400  0.57640150  0.61025750  1
  C  965  1  0.95409200  0.60749850  0.64663200  1
  C  967  1  0.81752600  0.38624700  0.85154350  1
  C  968  1  0.88637600  0.38372000  0.85684600  1
  C  969  1  0.93641200  0.37613750  0.84846950  1
  C  970  1  0.92164600  0.37088900  0.83387400  1
  C  971  1  0.85224600  0.37308000  0.82868550  1
  C  972  1  0.80124000  0.38026500  0.83731200  1
  C  975  1  0.97788000  0.38228500  0.86985150  1
  C  978  1  0.75902200  0.37357650  0.81623900  1
  C  981  1  0.77271800  0.39406400  0.86119400  1
  C  983  1  0.96919400  0.36279200  0.82502500  1
  C  985  1  0.90351000  0.60091400  0.33480450  1
  C  986  1  0.83473400  0.60623950  0.33722850  1
  C  987  1  0.78472800  0.59786750  0.34474550  1
  C  988  1  0.79951400  0.58326700  0.35000150  1
  C  989  1  0.86892000  0.57807600  0.34791950  1
  C  990  1  0.91992800  0.58670300  0.34082050  1
  C  993  1  0.74329800  0.61925050  0.33852200  1
  C  996  1  0.96217000  0.56563200  0.34753750  1
  C  999  1  0.94809600  0.61052050  0.32699350  1
  C  1001  1  0.75199400  0.57442000  0.35803550  1
  C  1003  1  0.91861600  0.36938650  0.13682850  1
  C  1004  1  0.84981400  0.36416200  0.13431550  1
  C  1005  1  0.79978800  0.37260350  0.12673200  1
  C  1006  1  0.81452600  0.38718500  0.12149450  1
  C  1007  1  0.88395100  0.39227650  0.12366800  1
  C  1008  1  0.93498400  0.38357750  0.13083150  1
  C  1011  1  0.75834000  0.35128100  0.13290350  1
  C  1014  1  0.97720400  0.40459350  0.12416800  1
  C  1017  1  0.96326000  0.35969850  0.14467200  1
  C  1019  1  0.76694200  0.39609700  0.11339950  1
  C  1021  1  0.91108400  0.38617100  0.35158200  1
  C  1022  1  0.84229200  0.38374600  0.35680850  1
  C  1023  1  0.79229200  0.37622550  0.34836950  1
  C  1024  1  0.80708400  0.37096900  0.33379100  1
  C  1025  1  0.87645800  0.37306700  0.32868700  1
  C  1026  1  0.92745000  0.38017700  0.33737950  1
  C  1029  1  0.75083000  0.38243800  0.36969450  1
  C  1032  1  0.96971800  0.37342150  0.31637950  1
  C  1035  1  0.95575400  0.39396750  0.36125500  1
  C  1037  1  0.75959400  0.36288250  0.32492700  1
  C  1039  1  0.92609600  0.58412600  0.12005850  1
  C  1040  1  0.85728800  0.58664850  0.11474100  1
  C  1041  1  0.80726800  0.59423100  0.12311600  1
  C  1042  1  0.82205400  0.59947850  0.13771100  1
  C  1043  1  0.89144400  0.59728950  0.14290450  1
  C  1044  1  0.94243600  0.59010350  0.13428300  1
  C  1047  1  0.76583200  0.58808000  0.10173100  1
  C  1050  1  0.98469400  0.59678950  0.15534700  1
  C  1053  1  0.97094600  0.57631450  0.11043800  1
  C  1055  1  0.77451200  0.60757350  0.14656000  1
  C  1057  1  0.42701100  0.84024950  0.10754000  1
  C  1058  1  0.35768300  0.83543800  0.10439700  1
  C  1059  1  0.30711300  0.84407350  0.09685300  1
  C  1060  1  0.32244500  0.85859450  0.09124700  1
  C  1061  1  0.39122600  0.86357650  0.09462100  1
  C  1062  1  0.44133100  0.85500500  0.10233700  1
  C  1065  1  0.26425000  0.82309450  0.10417100  1
  C  1068  1  0.48309300  0.87645850  0.09547900  1
  C  1071  1  0.46789800  0.82955150  0.11563300  1
  C  1073  1  0.27868500  0.86941950  0.08408800  1
  C  1075  1  0.41300100  0.12953650  0.36449250  1
  C  1076  1  0.34353700  0.13436800  0.36771900  1
  C  1077  1  0.29306300  0.12577400  0.37523750  1
  C  1078  1  0.30829300  0.11123500  0.38085000  1
  C  1079  1  0.37719500  0.10624500  0.37752500  1
  C  1080  1  0.42725300  0.11475450  0.36979550  1
  C  1083  1  0.24959900  0.14674650  0.36791400  1
  C  1086  1  0.46899200  0.09325450  0.37676550  1
  C  1089  1  0.45302000  0.14022450  0.35616850  1
  C  1091  1  0.26432900  0.10045600  0.38793250  1
  C  1093  1  0.41987300  0.11336250  0.09148900  1
  C  1094  1  0.35037300  0.11654900  0.08666600  1
  C  1095  1  0.29991700  0.12410600  0.09525100  1
  C  1096  1  0.31528500  0.12964100  0.10980500  1
  C  1097  1  0.38421900  0.12628450  0.11481300  1
  C  1098  1  0.43434000  0.11856250  0.10628200  1
  C  1101  1  0.25665700  0.11681050  0.07424900  1
  C  1104  1  0.47599600  0.12536600  0.12782800  1
  C  1107  1  0.46000700  0.10522750  0.08070200  1
  C  1109  1  0.27139700  0.13678500  0.12056900  1
  C  1111  1  0.40530100  0.85643700  0.38078650  1
  C  1112  1  0.33596300  0.85324450  0.38558650  1
  C  1113  1  0.28537100  0.84572850  0.37694700  1
  C  1114  1  0.30043100  0.84012350  0.36241000  1
  C  1115  1  0.36926900  0.84340700  0.35746750  1
  C  1116  1  0.41944100  0.85107050  0.36604700  1
  C  1119  1  0.24223100  0.85308600  0.39787950  1
  C  1122  1  0.46113100  0.84408000  0.34460300  1
  C  1125  1  0.44598700  0.86475450  0.39140200  1
  C  1127  1  0.25654600  0.83301350  0.35158600  1
  C  1129  1  0.31660500  0.13012350  0.86402350  1
  C  1130  1  0.38595700  0.13493200  0.86717850  1
  C  1131  1  0.43654300  0.12629650  0.87472400  1
  C  1132  1  0.42121300  0.11177850  0.88032900  1
  C  1133  1  0.35244300  0.10679400  0.87695600  1
  C  1134  1  0.30233300  0.11536500  0.86923700  1
  C  1137  1  0.47944000  0.14727050  0.86740850  1
  C  1140  1  0.26060700  0.09390850  0.87610000  1
  C  1143  1  0.27569900  0.14081700  0.85590150  1
  C  1145  1  0.46498200  0.10096000  0.88748950  1
  C  1147  1  0.30080100  0.84084700  0.60705200  1
  C  1148  1  0.37023700  0.83601350  0.60383950  1
  C  1149  1  0.42067400  0.84461000  0.59632300  1
  C  1150  1  0.40538400  0.85914550  0.59071250  1
  C  1151  1  0.33650200  0.86414050  0.59403650  1
  C  1152  1  0.28646500  0.85562800  0.60176150  1
  C  1155  1  0.46413300  0.82363600  0.60364700  1
  C  1158  1  0.24471500  0.87713100  0.59479450  1
  C  1161  1  0.26082200  0.83015250  0.61534500  1
  C  1163  1  0.44933500  0.86991750  0.58363100  1
  C  1165  1  0.32388500  0.85699450  0.88009000  1
  C  1166  1  0.39337600  0.85381200  0.88491400  1
  C  1167  1  0.44382700  0.84625650  0.87632950  1
  C  1168  1  0.42844700  0.84072150  0.86177600  1
  C  1169  1  0.35951900  0.84407750  0.85676600  1
  C  1170  1  0.30940400  0.85179700  0.86529700  1
  C  1173  1  0.48707600  0.85355250  0.89733350  1
  C  1176  1  0.26773700  0.84499450  0.84375050  1
  C  1179  1  0.28375000  0.86511750  0.89088150  1
  C  1181  1  0.47232600  0.83357750  0.85101250  1
  C  1183  1  0.30846100  0.11396200  0.59078900  1
  C  1184  1  0.37777600  0.11714450  0.58597450  1
  C  1185  1  0.42835700  0.12465900  0.59461500  1
  C  1186  1  0.41328500  0.13026300  0.60915200  1
  C  1187  1  0.34445000  0.12698000  0.61409600  1
  C  1188  1  0.29429100  0.11932000  0.60551900  1
  C  1191  1  0.47148700  0.11729950  0.57368150  1
  C  1194  1  0.25258200  0.12630600  0.62696050  1
  C  1197  1  0.26769000  0.10565850  0.58020300  1
  C  1199  1  0.45716300  0.13737100  0.61997700  1
  C  1201  1  0.41204300  0.34025200  0.60753500  1
  C  1202  1  0.34270400  0.33544250  0.60438750  1
  C  1203  1  0.29212600  0.34408050  0.59684350  1
  C  1204  1  0.30744300  0.35860150  0.59123800  1
  C  1205  1  0.37622500  0.36358250  0.59461200  1
  C  1206  1  0.42633500  0.35500900  0.60232650  1
  C  1209  1  0.24925100  0.32310350  0.60416200  1
  C  1212  1  0.46808000  0.37646700  0.59547050  1
  C  1215  1  0.45298300  0.32956900  0.61564750  1
  C  1217  1  0.26367900  0.36942800  0.58407900  1
  C  1219  1  0.42787700  0.62951550  0.86452850  1
  C  1220  1  0.35844500  0.63435350  0.86773800  1
  C  1221  1  0.30800300  0.62575800  0.87525400  1
  C  1222  1  0.32327200  0.61122050  0.88086500  1
  C  1223  1  0.39216500  0.60622650  0.87754100  1
  C  1224  1  0.44220700  0.61473700  0.86981700  1
  C  1227  1  0.26456900  0.64673650  0.86792650  1
  C  1230  1  0.48397400  0.59323700  0.87678150  1
  C  1233  1  0.46786500  0.64021300  0.85624500  1
  C  1235  1  0.27932100  0.60044200  0.88794650  1
  C  1237  1  0.40487100  0.61337100  0.59147750  1
  C  1238  1  0.33537100  0.61655750  0.58665350  1
  C  1239  1  0.28492300  0.62411300  0.59523750  1
  C  1240  1  0.30031900  0.62964800  0.60978850  1
  C  1241  1  0.36923700  0.62629250  0.61480100  1
  C  1242  1  0.41934800  0.61857100  0.60627000  1
  C  1245  1  0.24164800  0.61682050  0.57423750  1
  C  1248  1  0.46099400  0.62537600  0.62781750  1
  C  1251  1  0.44500100  0.60523700  0.58069050  1
  C  1253  1  0.25643500  0.63679150  0.62054600  1
  C  1255  1  0.42032400  0.35642850  0.88079950  1
  C  1256  1  0.35098600  0.35323700  0.88559950  1
  C  1257  1  0.30039800  0.34572050  0.87696050  1
  C  1258  1  0.31548200  0.34011650  0.86242650  1
  C  1259  1  0.38430700  0.34339850  0.85747950  1
  C  1260  1  0.43446900  0.35106250  0.86605900  1
  C  1263  1  0.25724300  0.35307650  0.89789100  1
  C  1266  1  0.47615100  0.34407000  0.84461350  1
  C  1269  1  0.46099700  0.36474600  0.89141700  1
  C  1271  1  0.27159900  0.33300600  0.85160850  1
  C  1273  1  0.30172800  0.63013200  0.36403950  1
  C  1274  1  0.37104600  0.63494000  0.36717900  1
  C  1275  1  0.42160700  0.62630350  0.37472000  1
  C  1276  1  0.40623800  0.61178550  0.38032300  1
  C  1277  1  0.33747700  0.60679800  0.37695250  1
  C  1278  1  0.28738300  0.61537300  0.36924050  1
  C  1281  1  0.46447400  0.64728150  0.36740100  1
  C  1284  1  0.24562700  0.59391350  0.37609350  1
  C  1287  1  0.26087600  0.64083750  0.35595050  1
  C  1289  1  0.44999000  0.60096650  0.38748300  1
  C  1291  1  0.31573900  0.34083950  0.10707200  1
  C  1292  1  0.38519400  0.33600450  0.10385200  1
  C  1293  1  0.43565600  0.34459800  0.09633500  1
  C  1294  1  0.42038700  0.35913500  0.09072350  1
  C  1295  1  0.35150500  0.36413000  0.09404650  1
  C  1296  1  0.30145700  0.35562050  0.10177400  1
  C  1299  1  0.47912300  0.32362600  0.10365800  1
  C  1302  1  0.25972300  0.37712300  0.09480400  1
  C  1305  1  0.27571900  0.33015200  0.11538500  1
  C  1307  1  0.46434300  0.36990650  0.08364100  1
  C  1309  1  0.30886500  0.35700550  0.38008100  1
  C  1310  1  0.37835700  0.35382400  0.38490600  1
  C  1311  1  0.42880100  0.34626900  0.37632200  1
  C  1312  1  0.41339700  0.34073450  0.36177100  1
  C  1313  1  0.34448100  0.34408900  0.35675750  1
  C  1314  1  0.29437600  0.35180900  0.36528850  1
  C  1317  1  0.47206400  0.35356300  0.39732400  1
  C  1320  1  0.25272000  0.34500500  0.34374000  1
  C  1323  1  0.26873300  0.36512850  0.39087300  1
  C  1325  1  0.45727600  0.33359050  0.35101350  1
  C  1327  1  0.32346200  0.61395050  0.09079800  1
  C  1328  1  0.39277800  0.61713150  0.08598200  1
  C  1329  1  0.44335400  0.62464600  0.09462200  1
  C  1330  1  0.42825400  0.63024900  0.10915600  1
  C  1331  1  0.35943500  0.62696800  0.11410450  1
  C  1332  1  0.30928200  0.61930800  0.10552700  1
  C  1335  1  0.48649400  0.61728900  0.07369100  1
  C  1338  1  0.26758500  0.62629550  0.12697050  1
  C  1341  1  0.28269700  0.60564750  0.08020900  1
  C  1343  1  0.47212700  0.63735900  0.11997350  1
  C  1345  1  0.19714100  0.92640400  0.00220050  1
  C  1346  1  0.19433200  0.91421400  0.99214700  1
  C  1347  1  0.19258200  0.91609550  0.97663400  1
  C  1348  1  0.19224800  0.93052450  0.97012700  1
  C  1349  1  0.19199200  0.94267650  0.98014350  1
  C  1350  1  0.19438400  0.94079500  0.99559450  1
  C  1353  1  0.19376900  0.89291400  0.98245300  1
  C  1356  1  0.19280500  0.96397500  0.98973200  1
  C  1359  1  0.19347100  0.92337900  0.01740700  1
  C  1361  1  0.20344100  0.93399250  0.95527800  1
  C  1363  1  0.18212300  0.04352450  0.46980000  1
  C  1364  1  0.17922500  0.05571700  0.47985600  1
  C  1365  1  0.17752000  0.05383950  0.49536800  1
  C  1366  1  0.17720400  0.03941300  0.50187650  1
  C  1367  1  0.17696400  0.02726150  0.49185900  1
  C  1368  1  0.17929900  0.02914000  0.47641050  1
  C  1371  1  0.17874200  0.07701900  0.48955550  1
  C  1374  1  0.17770900  0.00596250  0.48227450  1
  C  1377  1  0.17869100  0.04656750  0.45457700  1
  C  1379  1  0.18840800  0.03593050  0.51674100  1
  C  1381  1  0.18965000  0.21876050  0.17745250  1
  C  1382  1  0.18674300  0.22881900  0.16525750  1
  C  1383  1  0.18508500  0.24433700  0.16713650  1
  C  1384  1  0.18527900  0.25085150  0.18157000  1
  C  1385  1  0.18453100  0.24083150  0.19371400  1
  C  1386  1  0.18685300  0.22537650  0.19183750  1
  C  1389  1  0.18622300  0.23851500  0.14395300  1
  C  1392  1  0.18520000  0.23124600  0.21501500  1
  C  1395  1  0.18619700  0.20354150  0.17441150  1
  C  1397  1  0.19603500  0.26572650  0.18505550  1
  C  1399  1  0.17445300  0.75117800  0.29455200  1
  C  1400  1  0.17165700  0.74113500  0.30674900  1
  C  1401  1  0.17019100  0.72562400  0.30487400  1
  C  1402  1  0.17059600  0.71909400  0.29045450  1
  C  1403  1  0.16949600  0.72910100  0.27829050  1
  C  1404  1  0.17173100  0.74455950  0.28016450  1
  C  1407  1  0.17123700  0.73143550  0.32805250  1
  C  1410  1  0.17028900  0.73868800  0.25698800  1
  C  1413  1  0.17124100  0.76640200  0.29758500  1
  C  1415  1  0.18323600  0.70422000  0.28712550  1
  C  1417  1  0.53105500  0.92680550  0.46934750  1
  C  1418  1  0.53427200  0.91466150  0.47945600  1
  C  1419  1  0.53614700  0.91659500  0.49498100  1
  C  1420  1  0.53590600  0.93107300  0.50150450  1
  C  1421  1  0.53674400  0.94313050  0.49137300  1
  C  1422  1  0.53417800  0.94121950  0.47591650  1
  C  1425  1  0.53494600  0.89336750  0.48914650  1
  C  1428  1  0.53593400  0.96442200  0.48177900  1
  C  1431  1  0.53394800  0.92362150  0.45414600  1
  C  1433  1  0.52589400  0.93486200  0.51642850  1
  C  1435  1  0.54608200  0.04400900  0.00179700  1
  C  1436  1  0.54938000  0.05615200  0.99169500  1
  C  1437  1  0.55125300  0.05423050  0.97617950  1
  C  1438  1  0.55138200  0.03976550  0.96969000  1
  C  1439  1  0.55179600  0.02767900  0.97977200  1
  C  1440  1  0.54926400  0.02959350  0.99522150  1
  C  1443  1  0.54996600  0.07744450  0.98199100  1
  C  1446  1  0.55103300  0.00639200  0.98935100  1
  C  1449  1  0.54872400  0.04720350  0.01701500  1
  C  1451  1  0.54092400  0.03607750  0.95481150  1
  C  1453  1  0.53856900  0.21917050  0.29417200  1
  C  1454  1  0.54184700  0.22926450  0.30632950  1
  C  1455  1  0.54376100  0.24477800  0.30442700  1
  C  1456  1  0.54407800  0.25125750  0.28997250  1
  C  1457  1  0.54430800  0.24119450  0.27786200  1
  C  1458  1  0.54169500  0.22574750  0.27975950  1
  C  1461  1  0.54247400  0.23897750  0.32762250  1
  C  1464  1  0.54354000  0.23163150  0.25656150  1
  C  1467  1  0.54121600  0.20395700  0.29736950  1
  C  1469  1  0.53374400  0.26611700  0.28627250  1
  C  1471  1  0.55315800  0.75161450  0.17690150  1
  C  1472  1  0.55678000  0.74147550  0.16479550  1
  C  1473  1  0.55881000  0.72596800  0.16673550  1
  C  1474  1  0.55879700  0.71951450  0.18121300  1
  C  1475  1  0.55939200  0.72961000  0.19328700  1
  C  1476  1  0.55659200  0.74506600  0.19134700  1
  C  1479  1  0.55745200  0.73177000  0.14351300  1
  C  1482  1  0.55847700  0.73919300  0.21456600  1
  C  1485  1  0.55440600  0.76681700  0.17352550  1
  C  1487  1  0.54841600  0.70465200  0.18491350  1
  C  1489  1  0.55411200  0.75158900  0.79413000  1
  C  1490  1  0.55697400  0.74154750  0.80633100  1
  C  1491  1  0.55849000  0.72603500  0.80445750  1
  C  1492  1  0.55822800  0.71949850  0.79003850  1
  C  1493  1  0.55917200  0.72951000  0.77787850  1
  C  1494  1  0.55693200  0.74497050  0.77974650  1
  C  1497  1  0.55747200  0.73185100  0.82763450  1
  C  1500  1  0.55843200  0.73910250  0.75657350  1
  C  1503  1  0.55772000  0.76679300  0.79716150  1
  C  1505  1  0.54550000  0.70465150  0.78670250  1
  C  1507  1  0.53908000  0.21920650  0.67701100  1
  C  1508  1  0.54198100  0.22926300  0.66482250  1
  C  1509  1  0.54367400  0.24477750  0.66666667  1
  C  1510  1  0.54389400  0.25129100  0.68113850  1
  C  1511  1  0.54423000  0.24126750  0.69328200  1
  C  1512  1  0.54190700  0.22581700  0.69139900  1
  C  1515  1  0.54246300  0.23896100  0.64352150  1
  C  1518  1  0.54349800  0.23168000  0.71457950  1
  C  1521  1  0.54251800  0.20398350  0.67397350  1
  C  1523  1  0.53268200  0.26616100  0.68461300  1
  C  1525  1  0.17569600  0.75120400  0.67732850  1
  C  1526  1  0.17191900  0.74107650  0.66521150  1
  C  1527  1  0.16982500  0.72557450  0.66713900  1
  C  1528  1  0.16955600  0.71911800  0.68160100  1
  C  1529  1  0.16929600  0.72920500  0.69369400  1
  C  1530  1  0.17214400  0.74465800  0.69176800  1
  C  1533  1  0.17123500  0.73135950  0.64392750  1
  C  1536  1  0.17011500  0.73877450  0.71498400  1
  C  1539  1  0.17428700  0.76640250  0.67393950  1
  C  1541  1  0.18031400  0.70425600  0.68524650  1
  C  1543  1  0.18999700  0.21874050  0.79461550  1
  C  1544  1  0.18685300  0.22884650  0.80675950  1
  C  1545  1  0.18497500  0.24436450  0.80483750  1
  C  1546  1  0.18494500  0.25084700  0.79036950  1
  C  1547  1  0.18439600  0.24077100  0.77828000  1
  C  1548  1  0.18698300  0.22531850  0.78019600  1
  C  1551  1  0.18627100  0.23855000  0.82805050  1
  C  1554  1  0.18528000  0.23119000  0.75699500  1
  C  1557  1  0.18751300  0.20352400  0.79780100  1
  C  1559  1  0.19527300  0.26571500  0.78667750  1
  C  1561  1  0.18212900  0.42641450  0.50219050  1
  C  1562  1  0.17932000  0.41422400  0.49213650  1
  C  1563  1  0.17757000  0.41610550  0.47662400  1
  C  1564  1  0.17723600  0.43053400  0.47011650  1
  C  1565  1  0.17698300  0.44268650  0.48013300  1
  C  1566  1  0.17937200  0.44080500  0.49558400  1
  C  1569  1  0.17875800  0.39292400  0.48244250  1
  C  1572  1  0.17779300  0.46398500  0.48972150  1
  C  1575  1  0.17846000  0.42338900  0.51739650  1
  C  1577  1  0.18842900  0.43400350  0.45526800  1
  C  1579  1  0.19713500  0.54351450  0.96981200  1
  C  1580  1  0.19423600  0.55570500  0.97987100  1
  C  1581  1  0.19254400  0.55381650  0.99539050  1
  C  1582  1  0.19246000  0.53937050  0.00191950  1
  C  1583  1  0.19199000  0.52724800  0.99186550  1
  C  1584  1  0.19431200  0.52913050  0.97641950  1
  C  1587  1  0.19375000  0.57700800  0.98956650  1
  C  1590  1  0.19271900  0.50595100  0.98228400  1
  C  1593  1  0.19370200  0.54655750  0.95458750  1
  C  1595  1  0.20371000  0.53570350  0.01689650  1
  C  1597  1  0.54606700  0.42680400  0.96934450  1
  C  1598  1  0.54937700  0.41466200  0.97945700  1
  C  1599  1  0.55109300  0.41659900  0.99497950  1
  C  1600  1  0.55020300  0.43107050  0.00149400  1
  C  1601  1  0.55162900  0.44313850  0.99139900  1
  C  1602  1  0.54922500  0.44121550  0.97593500  1
  C  1605  1  0.55001100  0.39336250  0.98915000  1
  C  1608  1  0.55104600  0.46440900  0.98179950  1
  C  1611  1  0.54872400  0.42360050  0.95412800  1
  C  1613  1  0.54092400  0.43468650  0.01645250  1
  C  1615  1  0.53121200  0.54402100  0.50178400  1
  C  1616  1  0.53435200  0.55616450  0.49168200  1
  C  1617  1  0.53622500  0.55424200  0.47616650  1
  C  1618  1  0.53623300  0.53977450  0.46968300  1
  C  1619  1  0.53680700  0.52768550  0.47976100  1
  C  1620  1  0.53422600  0.52960200  0.49521100  1
  C  1623  1  0.53493400  0.57745600  0.48197950  1
  C  1626  1  0.53592400  0.50640100  0.48934100  1
  C  1629  1  0.53369200  0.54720950  0.51700500  1
  C  1631  1  0.52591700  0.53608200  0.45479850  1
  C  1633  1  0.89696800  0.96950100  0.05033800  1
  C  1634  1  0.88062400  0.97925700  0.06235600  1
  C  1635  1  0.85588100  0.99392000  0.06065500  1
  C  1636  1  0.84653200  0.00068450  0.04654900  1
  C  1637  1  0.86127500  0.99105100  0.03427700  1
  C  1638  1  0.88645400  0.97627400  0.03602350  1
  C  1641  1  0.86515200  0.98841400  0.08372700  1
  C  1644  1  0.87806200  0.98218800  0.01281300  1
  C  1647  1  0.93322000  0.95608700  0.05441300  1
  C  1649  1  0.82203400  0.01537450  0.04417400  1
  C  1651  1  0.88166800  0.00087400  0.42127350  1
  C  1652  1  0.86566000  0.99110600  0.40923500  1
  C  1653  1  0.84089800  0.97647500  0.41089700  1
  C  1654  1  0.83150000  0.96972000  0.42498750  1
  C  1655  1  0.84629600  0.97933000  0.43728000  1
  C  1656  1  0.87145800  0.99407400  0.43556550  1
  C  1659  1  0.85019600  0.98196750  0.38783850  1
  C  1662  1  0.86315400  0.98816700  0.45876650  1
  C  1665  1  0.91825300  0.01419400  0.41724050  1
  C  1667  1  0.80697400  0.95506100  0.42732450  1
  C  1669  1  0.88917400  0.17064600  0.22010450  1
  C  1670  1  0.87316600  0.15862900  0.22987100  1
  C  1671  1  0.84837200  0.16032450  0.24449950  1
  C  1672  1  0.83900600  0.17442700  0.25125650  1
  C  1673  1  0.85379000  0.18670050  0.24164700  1
  C  1674  1  0.87896800  0.18495200  0.22690450  1
  C  1677  1  0.85759200  0.13725400  0.23900100  1
  C  1680  1  0.87066000  0.20816400  0.23281150  1
  C  1683  1  0.92575600  0.16656350  0.20678550  1
  C  1685  1  0.81443200  0.17678750  0.26591050  1
  C  1687  1  0.87489600  0.79977900  0.25190050  1
  C  1688  1  0.85839000  0.81193400  0.24228400  1
  C  1689  1  0.83537800  0.81025100  0.22759350  1
  C  1690  1  0.82951200  0.79611750  0.22092450  1
  C  1691  1  0.84011200  0.78372100  0.23053400  1
  C  1692  1  0.86428600  0.78537900  0.24530500  1
  C  1695  1  0.84275800  0.83330050  0.23287150  1
  C  1698  1  0.85599100  0.76217000  0.23905800  1
  C  1701  1  0.91200800  0.80375150  0.26508700  1
  C  1703  1  0.81544400  0.79388150  0.20590550  1
  C  1705  1  0.84678400  0.00083950  0.92122300  1
  C  1706  1  0.86313800  0.99109200  0.90921150  1
  C  1707  1  0.88788000  0.97644000  0.91091950  1
  C  1708  1  0.89729800  0.96970600  0.92503200  1
  C  1709  1  0.88246000  0.97932350  0.93730950  1
  C  1710  1  0.85725200  0.99409400  0.93555450  1
  C  1713  1  0.87858600  0.98193700  0.88784600  1
  C  1716  1  0.86563400  0.98818500  0.95876900  1
  C  1719  1  0.81088400  0.01425950  0.91708200  1
  C  1721  1  0.92187200  0.95503500  0.92736800  1
  C  1723  1  0.83206300  0.96953350  0.55031000  1
  C  1724  1  0.84808200  0.97929350  0.56234150  1
  C  1725  1  0.87284200  0.99391300  0.56067150  1
  C  1726  1  0.88230800  0.00063700  0.54657600  1
  C  1727  1  0.86741600  0.99104400  0.53427800  1
  C  1728  1  0.84222700  0.97630500  0.53600000  1
  C  1731  1  0.86352200  0.98843000  0.58373200  1
  C  1734  1  0.85051600  0.98220800  0.51279600  1
  C  1737  1  0.79584300  0.95620550  0.55440950  1
  C  1739  1  0.90690400  0.01527750  0.54427800  1
  C  1741  1  0.85416000  0.79979100  0.75193600  1
  C  1742  1  0.87028800  0.81191750  0.74229550  1
  C  1743  1  0.89333000  0.81020950  0.72763550  1
  C  1744  1  0.89914400  0.79607550  0.72096550  1
  C  1745  1  0.88850400  0.78369050  0.73055850  1
  C  1746  1  0.86440200  0.78538150  0.74530550  1
  C  1749  1  0.88594600  0.83326800  0.73290000  1
  C  1752  1  0.87263600  0.76215800  0.73905750  1
  C  1755  1  0.81743000  0.80388850  0.76510950  1
  C  1757  1  0.91354000  0.79384000  0.70597850  1
  C  1759  1  0.83913600  0.17067850  0.72012100  1
  C  1760  1  0.85556400  0.15863150  0.72985850  1
  C  1761  1  0.88037800  0.16029850  0.74451600  1
  C  1762  1  0.88975000  0.17439350  0.75127800  1
  C  1763  1  0.87500000  0.18668700  0.74164950  1
  C  1764  1  0.84973000  0.18497650  0.72688350  1
  C  1767  1  0.87112600  0.13724050  0.73900700  1
  C  1770  1  0.85814800  0.20817300  0.73279100  1
  C  1773  1  0.80221400  0.16672050  0.70678350  1
  C  1775  1  0.91415600  0.17673750  0.76597150  1
  C  1777  1  0.88195600  0.46951150  0.55032800  1
  C  1778  1  0.86561200  0.47926700  0.56234550  1
  C  1779  1  0.84087200  0.49393000  0.56064550  1
  C  1780  1  0.83152000  0.50069450  0.54653850  1
  C  1781  1  0.84626600  0.49106050  0.53426700  1
  C  1782  1  0.87144200  0.47628400  0.53601300  1
  C  1785  1  0.85014000  0.48842350  0.58371700  1
  C  1788  1  0.86305000  0.48219800  0.51280250  1
  C  1791  1  0.91820800  0.45609750  0.55440350  1
  C  1793  1  0.80702000  0.51538400  0.54416350  1
  C  1795  1  0.89667600  0.50086400  0.92128400  1
  C  1796  1  0.88067200  0.49109550  0.90924600  1
  C  1797  1  0.85591000  0.47646550  0.91090750  1
  C  1798  1  0.84651200  0.46971000  0.92499750  1
  C  1799  1  0.86131000  0.47932000  0.93728950  1
  C  1800  1  0.88646400  0.49406450  0.93557550  1
  C  1803  1  0.86521000  0.48195750  0.88784950  1
  C  1806  1  0.87816600  0.48815600  0.95877650  1
  C  1809  1  0.93325800  0.51418450  0.91725000  1
  C  1811  1  0.82198600  0.45505100  0.92733450  1
  C  1813  1  0.87451400  0.67056200  0.71966250  1
  C  1814  1  0.85836400  0.65844200  0.72929350  1
  C  1815  1  0.83531000  0.66015600  0.74394100  1
  C  1816  1  0.82937600  0.67429500  0.75058200  1
  C  1817  1  0.84016400  0.68668650  0.74100700  1
  C  1818  1  0.86431800  0.68498750  0.72626650  1
  C  1821  1  0.84275400  0.63709650  0.73868400  1
  C  1824  1  0.85609800  0.70821500  0.73250850  1
  C  1827  1  0.91089400  0.66639850  0.70648450  1
  C  1829  1  0.81485800  0.67648350  0.76555250  1
  C  1831  1  0.88955200  0.29971600  0.75143000  1
  C  1832  1  0.87310800  0.31175700  0.74169900  1
  C  1833  1  0.84829400  0.31008200  0.72705300  1
  C  1834  1  0.83885400  0.29598200  0.72032100  1
  C  1835  1  0.85369800  0.28368200  0.72993300  1
  C  1836  1  0.87899700  0.28540150  0.74469400  1
  C  1839  1  0.85756600  0.33314300  0.73255300  1
  C  1842  1  0.87059200  0.26220100  0.73879000  1
  C  1845  1  0.92608200  0.30374350  0.76477900  1
  C  1847  1  0.81437400  0.29367650  0.70564650  1
  C  1849  1  0.83177200  0.50085000  0.42121300  1
  C  1850  1  0.84812600  0.49110250  0.40920150  1
  C  1851  1  0.87286800  0.47645050  0.41090950  1
  C  1852  1  0.88228600  0.46971650  0.42502200  1
  C  1853  1  0.86745000  0.47933350  0.43730000  1
  C  1854  1  0.84224000  0.49410450  0.43554450  1
  C  1857  1  0.86357800  0.48194750  0.38783550  1
  C  1860  1  0.85062200  0.48819550  0.45875850  1
  C  1863  1  0.79587600  0.51427000  0.41707200  1
  C  1865  1  0.90686000  0.45504550  0.42735700  1
  C  1867  1  0.84708400  0.46952200  0.05031900  1
  C  1868  1  0.86309400  0.47928300  0.06235200  1
  C  1869  1  0.88784800  0.49390250  0.06068200  1
  C  1870  1  0.89732000  0.50062700  0.04658600  1
  C  1871  1  0.88242800  0.49103400  0.03428800  1
  C  1872  1  0.85724200  0.47629500  0.03601100  1
  C  1875  1  0.87853400  0.48842000  0.08374200  1
  C  1878  1  0.86552800  0.48219850  0.01280600  1
  C  1881  1  0.81085800  0.45619350  0.05441700  1
  C  1883  1  0.92191100  0.51526650  0.04428800  1
  C  1885  1  0.83957500  0.29974900  0.25144450  1
  C  1886  1  0.85559000  0.31176000  0.24168550  1
  C  1887  1  0.88037400  0.31005650  0.22706850  1
  C  1888  1  0.88980800  0.29594800  0.22034200  1
  C  1889  1  0.87493200  0.28366900  0.22993500  1
  C  1890  1  0.84973000  0.28542600  0.24467200  1
  C  1893  1  0.87113800  0.33312900  0.23255750  1
  C  1896  1  0.85802200  0.26221000  0.23876900  1
  C  1899  1  0.80334400  0.30389950  0.26477100  1
  C  1901  1  0.91444000  0.29362650  0.20570500  1
  C  1903  1  0.85384000  0.67057450  0.21969450  1
  C  1904  1  0.87037200  0.65842600  0.22930300  1
  C  1905  1  0.89340000  0.66011550  0.24398200  1
  C  1906  1  0.89937400  0.67425250  0.25062300  1
  C  1907  1  0.88864400  0.68665650  0.24103100  1
  C  1908  1  0.86441200  0.68499000  0.22626550  1
  C  1911  1  0.88596600  0.63706500  0.23871250  1
  C  1914  1  0.87269400  0.70820250  0.23250800  1
  C  1917  1  0.81710000  0.66653350  0.20649800  1
  C  1919  1  0.91358400  0.67644050  0.26562250  1
  H  7  1  0.18102200  0.91323700  0.04793900  1
  H  16  1  0.02756700  0.91100850  0.08785200  1
  H  17  1  0.01110300  0.95527600  0.02734700  1
  H  18  1  0.17761500  0.86420950  0.10446900  1
  H  19  1  0.98708400  0.92319500  0.06858500  1
  H  20  1  0.18363900  0.89208650  0.06039000  1
  H  31  1  0.16600600  0.05671900  0.42405900  1
  H  40  1  0.01260600  0.05916900  0.38393550  1
  H  41  1  0.99608000  0.01490950  0.44441500  1
  H  42  1  0.16262000  0.10576300  0.36751250  1
  H  43  1  0.97210800  0.04702450  0.40314300  1
  H  44  1  0.16875100  0.07786800  0.41159900  1
  H  55  1  0.17350100  0.17304500  0.16426800  1
  H  64  1  0.02006400  0.13312900  0.16181950  1
  H  65  1  0.00358500  0.19363300  0.20607150  1
  H  66  1  0.16997900  0.11655200  0.11519600  1
  H  67  1  0.97957800  0.15239500  0.17396050  1
  H  68  1  0.17609100  0.16060600  0.14312050  1
  H  79  1  0.15862600  0.79691550  0.30773200  1
  H  88  1  0.00510500  0.83704500  0.30995950  1
  H  89  1  0.98844200  0.77662150  0.26573700  1
  H  90  1  0.15510100  0.85346450  0.35675800  1
  H  91  1  0.96468600  0.81782750  0.29781100  1
  H  92  1  0.16122000  0.80937650  0.32888250  1
  H  103  1  0.54841000  0.91351800  0.42361850  1
  H  112  1  0.70136400  0.91160500  0.38367450  1
  H  113  1  0.70216600  0.95747600  0.44374950  1
  H  114  1  0.56724100  0.86375500  0.36958650  1
  H  115  1  0.73950200  0.92433600  0.40256550  1
  H  116  1  0.54391200  0.89304200  0.41070100  1
  H  127  1  0.56352200  0.05725400  0.04753800  1
  H  136  1  0.71663200  0.05887650  0.08772100  1
  H  137  1  0.71721000  0.01310000  0.02760100  1
  H  138  1  0.58427600  0.10721200  0.10139900  1
  H  139  1  0.75468800  0.04616250  0.06882700  1
  H  140  1  0.55948600  0.07772900  0.06044800  1
  H  151  1  0.55591600  0.17344400  0.30749350  1
  H  160  1  0.70867000  0.13330300  0.30938750  1
  H  161  1  0.70967200  0.19336350  0.26350750  1
  H  162  1  0.57353400  0.11915500  0.35725300  1
  H  163  1  0.74692400  0.15212750  0.29666100  1
  H  164  1  0.55112600  0.16044650  0.32801350  1
  H  175  1  0.56841500  0.79752050  0.16346200  1
  H  184  1  0.72372000  0.83737250  0.16208450  1
  H  185  1  0.71610400  0.77579000  0.20765550  1
  H  186  1  0.59345800  0.85100600  0.11374450  1
  H  187  1  0.76071000  0.81824750  0.17438100  1
  H  188  1  0.56685600  0.81026650  0.14306250  1
  H  199  1  0.56426600  0.05752550  0.92336600  1
  H  208  1  0.71640500  0.05944850  0.88350350  1
  H  209  1  0.73194100  0.01542450  0.94421550  1
  H  210  1  0.56598600  0.10621000  0.86705950  1
  H  211  1  0.75782800  0.04707300  0.90250100  1
  H  212  1  0.56056600  0.07842050  0.91105650  1
  H  223  1  0.54946400  0.91322000  0.54778700  1
  H  232  1  0.70134500  0.91112100  0.58785450  1
  H  233  1  0.71684200  0.95512850  0.52715650  1
  H  234  1  0.55095800  0.86456500  0.60410200  1
  H  235  1  0.74281500  0.92345600  0.56891400  1
  H  236  1  0.54543500  0.89237100  0.56009950  1
  H  247  1  0.57008000  0.79732450  0.80732900  1
  H  256  1  0.72363000  0.83724000  0.80976500  1
  H  257  1  0.74005800  0.77678050  0.76552950  1
  H  258  1  0.57374400  0.85381300  0.85638850  1
  H  259  1  0.76407000  0.81796200  0.79766250  1
  H  260  1  0.56760600  0.80976100  0.82847200  1
  H  271  1  0.55520400  0.17346950  0.66384250  1
  H  280  1  0.70861800  0.13334300  0.66160400  1
  H  281  1  0.72533400  0.19380900  0.70584100  1
  H  282  1  0.55860600  0.11692100  0.61480450  1
  H  283  1  0.74910000  0.15254850  0.67378800  1
  H  284  1  0.55250800  0.16101000  0.64268750  1
  H  295  1  0.16368800  0.05717650  0.54821750  1
  H  304  1  0.01221300  0.05884550  0.58811900  1
  H  305  1  0.01079900  0.01349800  0.52770350  1
  H  306  1  0.14638000  0.10668750  0.60201100  1
  H  307  1  0.97324600  0.04596100  0.56948150  1
  H  308  1  0.16929700  0.07749050  0.56099600  1
  H  319  1  0.17862200  0.91280550  0.92376000  1
  H  328  1  0.02696800  0.91141850  0.88362500  1
  H  329  1  0.02579300  0.95667650  0.94408500  1
  H  330  1  0.15938600  0.86308950  0.87014400  1
  H  331  1  0.98807000  0.92428700  0.90226650  1
  H  332  1  0.18374400  0.89249200  0.91100750  1
  H  343  1  0.16041200  0.79712000  0.66377600  1
  H  352  1  0.00560700  0.83712950  0.66212350  1
  H  353  1  0.01258900  0.77557250  0.70782250  1
  H  354  1  0.13996500  0.85129750  0.61423950  1
  H  355  1  0.96833400  0.81813900  0.67443550  1
  H  356  1  0.16311200  0.81001600  0.64329700  1
  H  367  1  0.17268700  0.17302750  0.80782400  1
  H  376  1  0.01944100  0.13304300  0.80944450  1
  H  377  1  0.01898100  0.19317250  0.76369800  1
  H  378  1  0.15037000  0.11941700  0.85777500  1
  H  379  1  0.98145000  0.15200300  0.79674550  1
  H  380  1  0.17638900  0.16017500  0.82826500  1
  H  391  1  0.16601000  0.41324650  0.54792950  1
  H  400  1  0.01255900  0.41101850  0.58784150  1
  H  401  1  0.99609400  0.45528600  0.52733750  1
  H  402  1  0.16260400  0.36421950  0.60445900  1
  H  403  1  0.97207200  0.42320450  0.56857500  1
  H  404  1  0.16862700  0.39209650  0.56037950  1
  H  415  1  0.18101700  0.55670950  0.92407000  1
  H  424  1  0.02761800  0.55915850  0.88394650  1
  H  425  1  0.01109700  0.51489800  0.94442500  1
  H  426  1  0.17763100  0.60575300  0.86752350  1
  H  427  1  0.98711600  0.54701350  0.90315350  1
  H  428  1  0.18375900  0.57785850  0.91160950  1
  H  439  1  0.15705200  0.67272100  0.66388350  1
  H  448  1  0.00482400  0.63290400  0.66171000  1
  H  449  1  0.98936200  0.69357650  0.70570250  1
  H  450  1  0.15509100  0.61650800  0.61512850  1
  H  451  1  0.96339000  0.65186800  0.67406150  1
  H  452  1  0.16061300  0.66048000  0.64296000  1
  H  463  1  0.17194500  0.29718900  0.80813000  1
  H  472  1  0.01983500  0.33726100  0.81006250  1
  H  473  1  0.00407100  0.27658650  0.76606250  1
  H  474  1  0.17023000  0.35350600  0.85682350  1
  H  475  1  0.97840400  0.31832650  0.79769050  1
  H  476  1  0.17571200  0.30950050  0.82902900  1
  H  487  1  0.56343200  0.41350950  0.92363500  1
  H  496  1  0.71637000  0.41159600  0.88368700  1
  H  497  1  0.71718200  0.45746700  0.94376100  1
  H  498  1  0.58225600  0.36374400  0.86959750  1
  H  499  1  0.75450400  0.42432750  0.90257750  1
  H  500  1  0.55892000  0.39303400  0.91071400  1
  H  511  1  0.54851000  0.55726500  0.54752700  1
  H  520  1  0.70161400  0.55888650  0.58771050  1
  H  521  1  0.70219600  0.51311100  0.52759150  1
  H  522  1  0.56927200  0.60722350  0.60138800  1
  H  523  1  0.73967600  0.54617300  0.56881700  1
  H  524  1  0.54447400  0.57774000  0.56043800  1
  H  535  1  0.56977800  0.67295550  0.80811700  1
  H  544  1  0.72323800  0.63300000  0.80951800  1
  H  545  1  0.71882400  0.69512700  0.76445150  1
  H  546  1  0.58870800  0.61905050  0.85738850  1
  H  547  1  0.76134000  0.65174100  0.79704700  1
  H  548  1  0.56614200  0.66022600  0.82842650  1
  H  559  1  0.55760400  0.29762250  0.66343850  1
  H  568  1  0.70938800  0.33756350  0.66206000  1
  H  569  1  0.71046000  0.27709550  0.70728900  1
  H  570  1  0.57849200  0.35101050  0.61373000  1
  H  571  1  0.74823200  0.31885750  0.67491150  1
  H  572  1  0.55276300  0.31033300  0.64315900  1
  H  583  1  0.54925900  0.55753850  0.42335650  1
  H  592  1  0.70139400  0.55945850  0.38349350  1
  H  593  1  0.71692600  0.51543500  0.44420600  1
  H  594  1  0.55097800  0.60622100  0.36705000  1
  H  595  1  0.74282000  0.54708300  0.40249050  1
  H  596  1  0.54555600  0.57843100  0.41104650  1
  H  607  1  0.56454200  0.41319500  0.04771900  1
  H  616  1  0.71634700  0.41111100  0.08786400  1
  H  617  1  0.73198500  0.45513350  0.02717750  1
  H  618  1  0.56597000  0.36455400  0.10411150  1
  H  619  1  0.75780100  0.42342800  0.06891800  1
  H  620  1  0.56044000  0.39236350  0.06010800  1
  H  631  1  0.55671600  0.29765250  0.30764100  1
  H  640  1  0.70889800  0.33747200  0.30984650  1
  H  641  1  0.72445000  0.27676800  0.26583600  1
  H  642  1  0.55861000  0.35387500  0.35643100  1
  H  643  1  0.75032900  0.31847550  0.29751900  1
  H  644  1  0.55310900  0.30990000  0.32859050  1
  H  655  1  0.57164200  0.67317350  0.16343950  1
  H  664  1  0.72385600  0.63310000  0.16151800  1
  H  665  1  0.73958600  0.69373100  0.20550100  1
  H  666  1  0.57349200  0.61685550  0.11475700  1
  H  667  1  0.76523800  0.65204600  0.17385400  1
  H  668  1  0.56798200  0.66086050  0.14254400  1
  H  679  1  0.17850300  0.55717750  0.04821450  1
  H  688  1  0.02722900  0.55883500  0.08812800  1
  H  689  1  0.02584700  0.51349250  0.02770250  1
  H  690  1  0.16138200  0.60667800  0.10202100  1
  H  691  1  0.98825600  0.54595250  0.06949300  1
  H  692  1  0.18431000  0.57747850  0.06100500  1
  H  703  1  0.16361000  0.41281550  0.42375100  1
  H  712  1  0.01196100  0.41142900  0.38361450  1
  H  713  1  0.01078100  0.45668600  0.44407450  1
  H  714  1  0.14437100  0.36309950  0.37013450  1
  H  715  1  0.97305800  0.42429650  0.40225600  1
  H  716  1  0.16873500  0.39250250  0.41099750  1
  H  727  1  0.17120900  0.29720550  0.16374700  1
  H  736  1  0.01992300  0.33730650  0.16211750  1
  H  737  1  0.01832900  0.27690750  0.20748300  1
  H  738  1  0.15511400  0.35125500  0.11425750  1
  H  739  1  0.98080000  0.31873350  0.17499200  1
  H  740  1  0.17710100  0.31005250  0.14341900  1
  H  751  1  0.15883100  0.67255750  0.30841250  1
  H  760  1  0.00488000  0.63276200  0.30955450  1
  H  761  1  0.00988200  0.69490900  0.26461000  1
  H  762  1  0.13511000  0.61931550  0.35789550  1
  H  763  1  0.96704300  0.65163500  0.29710250  1
  H  764  1  0.16138700  0.65997150  0.32866650  1
  H  781  1  0.02039500  0.84258600  0.13440450  1
  H  782  1  0.73144000  0.91326100  0.12269350  1
  H  784  1  0.80272800  0.85036250  0.14892800  1
  H  786  1  0.95995400  0.90581300  0.10896900  1
  H  799  1  0.00534100  0.12758600  0.33737100  1
  H  800  1  0.71644400  0.05729950  0.34867550  1
  H  802  1  0.78759000  0.12012250  0.32255850  1
  H  804  1  0.94483000  0.06445200  0.36271300  1
  H  817  1  0.01290400  0.08656250  0.09339900  1
  H  818  1  0.72391800  0.09828250  0.16367000  1
  H  820  1  0.79539400  0.07204900  0.10089300  1
  H  822  1  0.95253000  0.11198150  0.15653650  1
  H  835  1  0.99789800  0.88361750  0.37836900  1
  H  836  1  0.70891600  0.87228550  0.30770800  1
  H  838  1  0.78028200  0.89840800  0.37057550  1
  H  840  1  0.93743400  0.85825750  0.31515050  1
  H  853  1  0.72333200  0.12777950  0.83717650  1
  H  854  1  0.01229300  0.05710200  0.84888800  1
  H  856  1  0.94091600  0.12000550  0.82264450  1
  H  858  1  0.78374800  0.06456700  0.86257950  1
  H  871  1  0.70836200  0.84279600  0.63419250  1
  H  872  1  0.99726400  0.91308700  0.62288550  1
  H  874  1  0.92620700  0.85026100  0.64899850  1
  H  876  1  0.76884000  0.90591700  0.60888100  1
  H  889  1  0.73081200  0.88380100  0.87818450  1
  H  890  1  0.01980500  0.87207950  0.80791050  1
  H  892  1  0.94833800  0.89828300  0.87065400  1
  H  894  1  0.79117500  0.85837950  0.81504300  1
  H  907  1  0.71579400  0.08676650  0.59319150  1
  H  908  1  0.00478900  0.09810000  0.66385600  1
  H  910  1  0.93342400  0.07200650  0.60102050  1
  H  912  1  0.77625200  0.11212900  0.65641400  1
  H  925  1  0.00538800  0.34259550  0.63439350  1
  H  926  1  0.71642800  0.41327200  0.62268300  1
  H  928  1  0.78780000  0.35040600  0.64889550  1
  H  930  1  0.94495200  0.40582550  0.60895750  1
  H  943  1  0.02035800  0.62757750  0.83738150  1
  H  944  1  0.73145600  0.55728700  0.84868800  1
  H  946  1  0.80250200  0.62007550  0.82260800  1
  H  948  1  0.95986400  0.56443850  0.86272700  1
  H  961  1  0.99788800  0.58657250  0.59338600  1
  H  962  1  0.70889600  0.59829250  0.66366100  1
  H  964  1  0.78037200  0.57205600  0.60088150  1
  H  966  1  0.93755000  0.61195800  0.65651150  1
  H  979  1  0.01290500  0.38360850  0.87838150  1
  H  980  1  0.72391400  0.37227550  0.80771700  1
  H  982  1  0.79528000  0.39840050  0.87058850  1
  H  984  1  0.95246800  0.35828050  0.81517650  1
  H  997  1  0.70831400  0.62779100  0.33716600  1
  H  998  1  0.99728400  0.55711000  0.34887900  1
  H  1000  1  0.92599800  0.61997850  0.32267200  1
  H  1002  1  0.76872000  0.56457350  0.36257200  1
  H  1015  1  0.72336800  0.34278450  0.13420200  1
  H  1016  1  0.01227700  0.41307750  0.12289450  1
  H  1018  1  0.94114600  0.35028400  0.14898400  1
  H  1020  1  0.78384200  0.40590850  0.10888850  1
  H  1033  1  0.71580400  0.38381250  0.37817700  1
  H  1034  1  0.00480600  0.37209000  0.30789850  1
  H  1036  1  0.93334000  0.39829600  0.37064550  1
  H  1038  1  0.77613600  0.35842350  0.31504800  1
  H  1051  1  0.73081200  0.58675550  0.09319900  1
  H  1052  1  0.01980900  0.59808950  0.16386750  1
  H  1054  1  0.94844800  0.57199400  0.10102900  1
  H  1056  1  0.79123800  0.61208550  0.15640800  1
  H  1069  1  0.22931500  0.81462900  0.10572000  1
  H  1070  1  0.51823400  0.88491200  0.09405800  1
  H  1072  1  0.44802700  0.81905850  0.11660200  1
  H  1074  1  0.29875200  0.87999250  0.08364000  1
  H  1087  1  0.21444300  0.15522200  0.36633700  1
  H  1088  1  0.50407700  0.08474850  0.37826050  1
  H  1090  1  0.43259400  0.15072400  0.35561800  1
  H  1092  1  0.28449300  0.08986750  0.38839650  1
  H  1105  1  0.22164700  0.11527900  0.06574700  1
  H  1106  1  0.51110000  0.12680900  0.13633300  1
  H  1108  1  0.43926300  0.10445050  0.07024700  1
  H  1110  1  0.29155600  0.13722700  0.13115950  1
  H  1123  1  0.20716800  0.85465500  0.40632650  1
  H  1124  1  0.49620800  0.84261650  0.33613750  1
  H  1126  1  0.42646700  0.86551700  0.40195400  1
  H  1128  1  0.27666200  0.83253900  0.34101900  1
  H  1141  1  0.51438600  0.15573450  0.86586100  1
  H  1142  1  0.22547800  0.08545300  0.87752200  1
  H  1144  1  0.29561600  0.15130800  0.85495900  1
  H  1146  1  0.44495500  0.09038250  0.88794450  1
  H  1159  1  0.49928400  0.81516050  0.60522300  1
  H  1160  1  0.20962200  0.88563700  0.59330100  1
  H  1162  1  0.28117000  0.81964550  0.61595250  1
  H  1164  1  0.42921400  0.88051100  0.58315950  1
  H  1177  1  0.52208100  0.85508400  0.90583550  1
  H  1178  1  0.23262800  0.84355300  0.83524650  1
  H  1180  1  0.30446000  0.86590550  0.90133700  1
  H  1182  1  0.45217200  0.83313500  0.84042100  1
  H  1195  1  0.50654900  0.11573000  0.56523500  1
  H  1196  1  0.21750000  0.12776850  0.63542500  1
  H  1198  1  0.28722500  0.10490450  0.56965500  1
  H  1200  1  0.43704900  0.13784550  0.63054450  1
  H  1213  1  0.21430900  0.31463950  0.60571050  1
  H  1214  1  0.50321900  0.38492100  0.59404950  1
  H  1216  1  0.43309600  0.31907650  0.61662500  1
  H  1218  1  0.28374500  0.38000050  0.58363150  1
  H  1231  1  0.22942400  0.65521300  0.86634900  1
  H  1232  1  0.51907800  0.58473350  0.87827450  1
  H  1234  1  0.44752300  0.65071850  0.85565050  1
  H  1236  1  0.29948500  0.58985250  0.88841000  1
  H  1249  1  0.20663500  0.61529000  0.56573650  1
  H  1250  1  0.49609600  0.62681850  0.63632350  1
  H  1252  1  0.42425800  0.60446000  0.57023500  1
  H  1254  1  0.27654900  0.63724200  0.63114150  1
  H  1267  1  0.22217700  0.35464500  0.90633700  1
  H  1268  1  0.51122500  0.34260600  0.83614700  1
  H  1270  1  0.44147900  0.36551300  0.90196900  1
  H  1272  1  0.29167100  0.33252450  0.84103750  1
  H  1285  1  0.49941000  0.65574700  0.36585250  1
  H  1286  1  0.21048100  0.58546050  0.37751350  1
  H  1288  1  0.28069200  0.65133550  0.35494700  1
  H  1290  1  0.42996300  0.59038900  0.38793700  1
  H  1303  1  0.51427600  0.31515100  0.10523400  1
  H  1304  1  0.22463500  0.38562850  0.09330950  1
  H  1306  1  0.29611600  0.31965050  0.11595000  1
  H  1308  1  0.44422500  0.38049950  0.08317000  1
  H  1321  1  0.50707300  0.35509400  0.40582600  1
  H  1322  1  0.21761100  0.34356450  0.33523550  1
  H  1324  1  0.28944600  0.36591600  0.40132850  1
  H  1326  1  0.43715900  0.33314000  0.34041850  1
  H  1339  1  0.52156100  0.61571900  0.06524450  1
  H  1340  1  0.23250600  0.62775850  0.13543550  1
  H  1342  1  0.30222800  0.60489150  0.06966100  1
  H  1344  1  0.45205500  0.63784000  0.13054600  1
  H  1357  1  0.19365900  0.88158100  0.98125100  1
  H  1358  1  0.19328900  0.97530750  0.99090050  1
  H  1360  1  0.19684200  0.91281500  0.02073950  1
  H  1362  1  0.23396100  0.94261950  0.95290450  1
  H  1375  1  0.17867900  0.08835200  0.49075850  1
  H  1376  1  0.17838600  0.99462900  0.48110950  1
  H  1378  1  0.18196100  0.05713300  0.45128400  1
  H  1380  1  0.21896100  0.02726750  0.51915650  1
  H  1393  1  0.18613800  0.23971800  0.13262000  1
  H  1394  1  0.18586700  0.23008250  0.22634850  1
  H  1396  1  0.18946100  0.20024250  0.16384600  1
  H  1398  1  0.22600600  0.26819950  0.19379550  1
  H  1411  1  0.17114700  0.73023000  0.33938550  1
  H  1412  1  0.17079500  0.73985400  0.24565450  1
  H  1414  1  0.17450100  0.76969600  0.30815550  1
  H  1416  1  0.21247200  0.70174250  0.27831100  1
  H  1429  1  0.53505700  0.88203400  0.49035100  1
  H  1430  1  0.53542900  0.97575600  0.48062200  1
  H  1432  1  0.53198200  0.91300050  0.45095700  1
  H  1434  1  0.49963100  0.94409300  0.51890650  1
  H  1447  1  0.55003400  0.08877750  0.98078450  1
  H  1448  1  0.55032800  0.99505950  0.99050800  1
  H  1450  1  0.54684800  0.05783000  0.02016600  1
  H  1452  1  0.51097900  0.02737550  0.95230800  1
  H  1465  1  0.54257000  0.24018400  0.33895450  1
  H  1466  1  0.54284800  0.23047800  0.24522650  1
  H  1468  1  0.53932900  0.20080750  0.30799500  1
  H  1470  1  0.50246200  0.26842400  0.27769750  1
  H  1483  1  0.55757200  0.73056650  0.13218050  1
  H  1484  1  0.55794000  0.74035400  0.22590050  1
  H  1486  1  0.55466100  0.76979100  0.16284100  1
  H  1488  1  0.51851600  0.70218900  0.19362100  1
  H  1501  1  0.55755200  0.73064650  0.83896750  1
  H  1502  1  0.55792400  0.74027000  0.74523900  1
  H  1504  1  0.55437000  0.77012650  0.80772250  1
  H  1506  1  0.51627700  0.70221450  0.77784250  1
  H  1519  1  0.54252800  0.24016450  0.63218800  1
  H  1520  1  0.54282200  0.23051500  0.72591100  1
  H  1522  1  0.53924800  0.20068850  0.66340350  1
  H  1524  1  0.50227300  0.26861900  0.69324900  1
  H  1537  1  0.17115200  0.73015250  0.63259550  1
  H  1538  1  0.17086000  0.73993100  0.72631850  1
  H  1540  1  0.17403100  0.76937050  0.66325250  1
  H  1542  1  0.21110200  0.70191350  0.69389750  1
  H  1555  1  0.18613700  0.23975500  0.83938350  1
  H  1556  1  0.18578200  0.23003050  0.74566100  1
  H  1558  1  0.18938900  0.20036850  0.80842800  1
  H  1560  1  0.22522400  0.26818250  0.77797800  1
  H  1573  1  0.17864800  0.38159100  0.48124100  1
  H  1574  1  0.17827700  0.47531800  0.49089050  1
  H  1576  1  0.18183000  0.41282500  0.52072950  1
  H  1578  1  0.21895400  0.44262850  0.45289300  1
  H  1591  1  0.19368700  0.58834100  0.99076900  1
  H  1592  1  0.19339500  0.49461850  0.98111850  1
  H  1594  1  0.19696900  0.55712350  0.95129500  1
  H  1596  1  0.23180200  0.52670700  0.01920050  1
  H  1609  1  0.55007900  0.38202850  0.99035750  1
  H  1610  1  0.55035200  0.47574350  0.98063850  1
  H  1612  1  0.54684200  0.41297450  0.95097650  1
  H  1614  1  0.51337300  0.44370700  0.01924100  1
  H  1627  1  0.53507000  0.58878900  0.48077450  1
  H  1628  1  0.53542000  0.49506750  0.49050000  1
  H  1630  1  0.53180400  0.55783700  0.52015650  1
  H  1632  1  0.49605200  0.52737050  0.45228250  1
  H  1645  1  0.86377800  0.98954000  0.09505600  1
  H  1646  1  0.88008800  0.98112700  0.00146900  1
  H  1648  1  0.95371000  0.95607700  0.06461700  1
  H  1650  1  0.82689800  0.01932000  0.03386400  1
  H  1663  1  0.84873400  0.98085300  0.37650850  1
  H  1664  1  0.86499400  0.98924150  0.47011250  1
  H  1666  1  0.93871100  0.01417350  0.40706150  1
  H  1668  1  0.81184600  0.95110900  0.43764000  1
  H  1681  1  0.85637400  0.12592550  0.24013650  1
  H  1682  1  0.87251000  0.21950850  0.23173750  1
  H  1684  1  0.94622000  0.15635600  0.20680450  1
  H  1686  1  0.81932400  0.18709500  0.26987550  1
  H  1699  1  0.84178400  0.84461300  0.23157200  1
  H  1700  1  0.85796000  0.75080750  0.23995750  1
  H  1702  1  0.93190000  0.81399100  0.26519750  1
  H  1704  1  0.82137200  0.78353150  0.20212400  1
  H  1717  1  0.87997000  0.98081200  0.87651800  1
  H  1718  1  0.86360600  0.98924600  0.97011350  1
  H  1720  1  0.79004200  0.01425450  0.90691200  1
  H  1722  1  0.91664000  0.95104200  0.93765300  1
  H  1735  1  0.86499100  0.98954450  0.59506200  1
  H  1736  1  0.84867200  0.98113300  0.50144900  1
  H  1738  1  0.77500900  0.95624400  0.56455300  1
  H  1740  1  0.90166600  0.01927750  0.53398600  1
  H  1753  1  0.88692600  0.84457900  0.73160300  1
  H  1754  1  0.87085400  0.75079800  0.73996900  1
  H  1756  1  0.79678600  0.81408850  0.76509450  1
  H  1758  1  0.90755600  0.78350200  0.70217400  1
  H  1771  1  0.87232800  0.12591050  0.74014750  1
  H  1772  1  0.85610400  0.21951950  0.73173100  1
  H  1774  1  0.78249000  0.15647650  0.70668100  1
  H  1776  1  0.90927600  0.18705400  0.76991800  1
  H  1789  1  0.84876600  0.48954950  0.59504550  1
  H  1790  1  0.86507800  0.48113750  0.50145850  1
  H  1792  1  0.93869800  0.45608750  0.56460750  1
  H  1794  1  0.81188600  0.51933050  0.53385400  1
  H  1807  1  0.86374200  0.48084300  0.87651850  1
  H  1808  1  0.88000600  0.48923100  0.97012300  1
  H  1810  1  0.95373200  0.51416300  0.90707150  1
  H  1812  1  0.82686000  0.45109850  0.93765100  1
  H  1825  1  0.84176800  0.62578500  0.73997950  1
  H  1826  1  0.85788200  0.71957450  0.73159550  1
  H  1828  1  0.93191500  0.65623400  0.70651950  1
  H  1830  1  0.82169200  0.68676900  0.76942950  1
  H  1843  1  0.85635600  0.34447100  0.73141300  1
  H  1844  1  0.87263200  0.25085400  0.73985050  1
  H  1846  1  0.94629600  0.31394400  0.76484700  1
  H  1848  1  0.81961600  0.28338400  0.70165350  1
  H  1861  1  0.86495800  0.48082200  0.37650750  1
  H  1862  1  0.84859200  0.48925650  0.47010350  1
  H  1864  1  0.77503300  0.51426500  0.40690100  1
  H  1866  1  0.90162800  0.45105200  0.43764250  1
  H  1879  1  0.88000200  0.48953450  0.09507200  1
  H  1880  1  0.86368400  0.48112350  0.00145900  1
  H  1882  1  0.79001600  0.45623700  0.06456050  1
  H  1884  1  0.91667800  0.51926650  0.03399600  1
  H  1897  1  0.87236400  0.34445700  0.23142250  1
  H  1898  1  0.85617200  0.25086550  0.23984350  1
  H  1900  1  0.78251600  0.31407150  0.26473200  1
  H  1902  1  0.90920800  0.28334200  0.20169500  1
  H  1915  1  0.88694200  0.62575200  0.24001100  1
  H  1916  1  0.87072400  0.71956550  0.23160700  1
  H  1918  1  0.79671000  0.65633950  0.20642300  1
  H  1920  1  0.90680200  0.68674000  0.26947850  1
  N  21  1  0.03562300  0.88972100  0.10812800  1
  N  22  1  0.21143900  0.86914950  0.07919200  1
  N  23  1  0.95099000  0.94441800  0.04688050  1
  N  24  1  0.15781400  0.93224000  0.02557200  1
  N  45  1  0.02065700  0.08043600  0.36366450  1
  N  46  1  0.19703600  0.10075450  0.39278150  1
  N  47  1  0.93599800  0.02584650  0.42478900  1
  N  48  1  0.14282600  0.03775550  0.44640300  1
  N  69  1  0.02817500  0.11286850  0.14053750  1
  N  70  1  0.20429500  0.14180850  0.12025200  1
  N  71  1  0.94349400  0.17409000  0.19513450  1
  N  72  1  0.15033100  0.19542000  0.18322600  1
  N  93  1  0.01311100  0.85730800  0.33124250  1
  N  94  1  0.18928500  0.82817300  0.35181100  1
  N  95  1  0.92847400  0.79620950  0.27681200  1
  N  96  1  0.13538800  0.77457400  0.28872350  1
  N  117  1  0.68997800  0.89046200  0.36240100  1
  N  118  1  0.50199000  0.87379050  0.39032150  1
  N  119  1  0.76274400  0.94823100  0.41869650  1
  N  120  1  0.56965400  0.93238200  0.44597700  1
  N  141  1  0.70520600  0.08012150  0.10897700  1
  N  142  1  0.51691200  0.09643900  0.08094550  1
  N  143  1  0.77778800  0.02225400  0.05274100  1
  N  144  1  0.58466600  0.03838900  0.02518200  1
  N  165  1  0.69771000  0.11204950  0.33055800  1
  N  166  1  0.50897500  0.14001700  0.34705650  1
  N  167  1  0.77023000  0.16822900  0.27276000  1
  N  168  1  0.57714000  0.19578250  0.28860900  1
  N  189  1  0.71280600  0.85861200  0.14085000  1
  N  190  1  0.52467600  0.83051550  0.12437650  1
  N  191  1  0.77670800  0.80282450  0.19823150  1
  N  192  1  0.58827400  0.77518000  0.18244150  1
  N  213  1  0.70812000  0.08070250  0.86332800  1
  N  214  1  0.53227000  0.10125950  0.89234550  1
  N  215  1  0.79350200  0.02593050  0.92461650  1
  N  216  1  0.58549000  0.03942650  0.94490750  1
  N  237  1  0.69306000  0.88988900  0.60802450  1
  N  238  1  0.51666200  0.86958500  0.57882300  1
  N  239  1  0.77849100  0.94455250  0.54685500  1
  N  240  1  0.57128700  0.93073800  0.52595200  1
  N  261  1  0.71553600  0.85749650  0.83104550  1
  N  262  1  0.53942600  0.82855650  0.85133450  1
  N  263  1  0.80006400  0.79625450  0.77667550  1
  N  264  1  0.59331600  0.77496050  0.78834450  1
  N  285  1  0.70057800  0.11307850  0.64032200  1
  N  286  1  0.52442400  0.14221350  0.61975400  1
  N  287  1  0.78539400  0.17415600  0.69497200  1
  N  288  1  0.57840600  0.19581300  0.68283500  1
  N  309  1  0.02363400  0.07997900  0.60928450  1
  N  310  1  0.21179700  0.09659550  0.58118200  1
  N  311  1  0.95036600  0.02223800  0.55298600  1
  N  312  1  0.14493100  0.03889850  0.52699000  1
  N  333  1  0.03843100  0.89018200  0.86247950  1
  N  334  1  0.22682000  0.87388800  0.89059350  1
  N  335  1  0.96533600  0.94802500  0.91871900  1
  N  336  1  0.15991400  0.93108700  0.94498000  1
  N  357  1  0.01598200  0.85837700  0.64097250  1
  N  358  1  0.20482600  0.83047500  0.62440150  1
  N  359  1  0.95202800  0.80273550  0.69829450  1
  N  360  1  0.14048700  0.77482650  0.68280550  1
  N  381  1  0.03093500  0.11179750  0.83069700  1
  N  382  1  0.21890500  0.13988550  0.84712250  1
  N  383  1  0.95841800  0.16811400  0.77284650  1
  N  384  1  0.15153700  0.19541150  0.78898800  1
  N  405  1  0.02061900  0.38973150  0.60811750  1
  N  406  1  0.19643300  0.36915900  0.57918250  1
  N  407  1  0.93597800  0.44442800  0.54687050  1
  N  408  1  0.14280500  0.43225000  0.52556200  1
  N  429  1  0.03567900  0.58042450  0.86367550  1
  N  430  1  0.21203300  0.60074350  0.89279350  1
  N  431  1  0.95101000  0.52583550  0.92480050  1
  N  432  1  0.15783700  0.53774550  0.94641350  1
  N  453  1  0.01314600  0.61275150  0.64046600  1
  N  454  1  0.18929300  0.64177450  0.62019350  1
  N  455  1  0.92784500  0.67403150  0.69491550  1
  N  456  1  0.13757300  0.69384800  0.68234050  1
  N  477  1  0.02810500  0.35742300  0.83131150  1
  N  478  1  0.20429700  0.32820500  0.85186350  1
  N  479  1  0.94254600  0.29629950  0.77658400  1
  N  480  1  0.15070400  0.27567950  0.79002900  1
  N  501  1  0.70498000  0.39045300  0.86241350  1
  N  502  1  0.51700700  0.37377800  0.89032200  1
  N  503  1  0.77775600  0.44822200  0.91870750  1
  N  504  1  0.58465400  0.43236200  0.94600350  1
  N  525  1  0.69018800  0.58013150  0.60896650  1
  N  526  1  0.50190600  0.59645000  0.58093600  1
  N  527  1  0.76278000  0.52226400  0.55273100  1
  N  528  1  0.56966000  0.53840000  0.52517200  1
  N  549  1  0.71282600  0.61186650  0.83066300  1
  N  550  1  0.52383700  0.63991300  0.84718850  1
  N  551  1  0.77700200  0.66753950  0.77333100  1
  N  552  1  0.58961200  0.69461150  0.79007950  1
  N  573  1  0.69787800  0.35870000  0.64081550  1
  N  574  1  0.50977800  0.33054300  0.62440850  1
  N  575  1  0.77089200  0.30238150  0.69864050  1
  N  576  1  0.57669200  0.27627550  0.68160700  1
  N  597  1  0.69309800  0.58071150  0.36331800  1
  N  598  1  0.51726900  0.60126950  0.39233700  1
  N  599  1  0.77849000  0.52594100  0.42460700  1
  N  600  1  0.57055900  0.53946150  0.44492000  1
  N  621  1  0.70806200  0.38987900  0.10803400  1
  N  622  1  0.53167400  0.36957400  0.07883200  1
  N  623  1  0.79352900  0.44453150  0.04687250  1
  N  624  1  0.58772200  0.43041800  0.02563950  1
  N  645  1  0.70054600  0.35763100  0.33109350  1
  N  646  1  0.52441600  0.32860850  0.35136450  1
  N  647  1  0.78598600  0.29637350  0.27642300  1
  N  648  1  0.57587100  0.27665550  0.28909050  1
  N  669  1  0.71561000  0.61294000  0.14027000  1
  N  670  1  0.53942600  0.64215800  0.11971550  1
  N  671  1  0.80104000  0.67408050  0.19477350  1
  N  672  1  0.59294100  0.69468900  0.18154400  1
  N  693  1  0.03865200  0.57996800  0.10929400  1
  N  694  1  0.22680300  0.59658700  0.08119800  1
  N  695  1  0.96536000  0.52222750  0.05299750  1
  N  696  1  0.15930400  0.53964800  0.02663550  1
  N  717  1  0.02342900  0.39019350  0.36246950  1
  N  718  1  0.21180700  0.37389850  0.39058350  1
  N  719  1  0.95033000  0.44803500  0.41870850  1
  N  720  1  0.14489700  0.43109650  0.44497200  1
  N  741  1  0.03092500  0.35844850  0.14095550  1
  N  742  1  0.21975400  0.33039200  0.12448150  1
  N  743  1  0.95786200  0.30227000  0.19872700  1
  N  744  1  0.15175800  0.27582150  0.18189900  1
  N  765  1  0.01580900  0.61163450  0.33078100  1
  N  766  1  0.20403800  0.63976500  0.34724700  1
  N  767  1  0.95167600  0.66744950  0.27339550  1
  N  768  1  0.13896200  0.69427700  0.29045200  1
  N  775  1  0.00151900  0.86402000  0.12627300  1
  N  778  1  0.75047800  0.89190400  0.13098300  1
  N  793  1  0.98647200  0.10617600  0.34547050  1
  N  796  1  0.73544000  0.07863850  0.34042850  1
  N  811  1  0.99397800  0.09470200  0.11480100  1
  N  814  1  0.74293000  0.08999600  0.14233650  1
  N  829  1  0.97899200  0.87550650  0.35693950  1
  N  832  1  0.72795000  0.88055400  0.32906350  1
  N  847  1  0.74223800  0.10634550  0.84530200  1
  N  850  1  0.99328300  0.07846050  0.84059850  1
  N  865  1  0.72725200  0.86420500  0.62609800  1
  N  868  1  0.97827800  0.89174800  0.63113400  1
  N  883  1  0.74971800  0.87566000  0.85678250  1
  N  886  1  0.00077000  0.88036650  0.82924150  1
  N  901  1  0.73468000  0.09487900  0.61462150  1
  N  904  1  0.98572600  0.08983100  0.64250250  1
  N  919  1  0.98652800  0.36402950  0.62626150  1
  N  922  1  0.73548200  0.39191700  0.63097150  1
  N  937  1  0.00151400  0.60616750  0.84548350  1
  N  940  1  0.75048400  0.57862200  0.84044050  1
  N  955  1  0.97893800  0.59470550  0.61478800  1
  N  958  1  0.72788600  0.59000550  0.64232700  1
  N  973  1  0.99397200  0.37550350  0.85695250  1
  N  976  1  0.74293000  0.38054450  0.82907350  1
  N  991  1  0.72719000  0.60635750  0.34529350  1
  N  994  1  0.97823600  0.57846500  0.34058900  1
  N  1009  1  0.74224400  0.36419400  0.12610650  1
  N  1012  1  0.99327400  0.39174150  0.13114300  1
  N  1027  1  0.73473200  0.37567700  0.35677450  1
  N  1030  1  0.98579000  0.38037800  0.32923000  1
  N  1045  1  0.74971800  0.59486150  0.11462850  1
  N  1048  1  0.00076900  0.58982000  0.14251300  1
  N  1063  1  0.24872900  0.83586800  0.09697600  1
  N  1066  1  0.49830900  0.86358300  0.10236500  1
  N  1081  1  0.23444100  0.13397950  0.37508350  1
  N  1084  1  0.48429400  0.10609350  0.36986200  1
  N  1099  1  0.24138100  0.12399850  0.08701400  1
  N  1102  1  0.49126300  0.11845000  0.11498000  1
  N  1117  1  0.22686200  0.84590150  0.38510750  1
  N  1120  1  0.47644600  0.85094100  0.35747350  1
  N  1135  1  0.49495000  0.13449600  0.87460350  1
  N  1138  1  0.24536500  0.10678200  0.86921100  1
  N  1153  1  0.47928800  0.83640400  0.59647750  1
  N  1156  1  0.22943000  0.86429050  0.60169450  1
  N  1171  1  0.50235700  0.84636450  0.88456850  1
  N  1174  1  0.25248700  0.85190950  0.85659800  1
  N  1189  1  0.48686100  0.12448350  0.58645450  1
  N  1192  1  0.23728700  0.11944900  0.61408850  1
  N  1207  1  0.23372900  0.33587850  0.59696800  1
  N  1210  1  0.48330100  0.36359050  0.60235500  1
  N  1225  1  0.24940100  0.63396850  0.87509600  1
  N  1228  1  0.49924200  0.60607750  0.86988400  1
  N  1243  1  0.22637900  0.62400800  0.58700300  1
  N  1246  1  0.47626300  0.61845950  0.61497050  1
  N  1261  1  0.24188300  0.34589200  0.88511850  1
  N  1264  1  0.49146900  0.35093100  0.85748400  1
  N  1279  1  0.47999600  0.63450750  0.37459550  1
  N  1282  1  0.23042100  0.60679000  0.36921150  1
  N  1297  1  0.49427800  0.33639350  0.09648800  1
  N  1300  1  0.24443200  0.36428350  0.10170500  1
  N  1315  1  0.48733800  0.34637450  0.38455900  1
  N  1318  1  0.23746500  0.35192050  0.35658750  1
  N  1333  1  0.50186300  0.62447300  0.08646300  1
  N  1336  1  0.25228400  0.61943800  0.11409900  1
  N  1351  1  0.19305700  0.90238950  0.97080800  1
  N  1354  1  0.19448900  0.95452000  0.00137500  1
  N  1369  1  0.17804500  0.06754300  0.50119800  1
  N  1372  1  0.17946600  0.01541300  0.47063300  1
  N  1387  1  0.18560400  0.25016000  0.15342850  1
  N  1390  1  0.18693700  0.21960050  0.20556550  1
  N  1405  1  0.17070600  0.71979250  0.31857850  1
  N  1408  1  0.17188200  0.75033600  0.26643600  1
  N  1423  1  0.53574100  0.90286500  0.50078100  1
  N  1426  1  0.53409700  0.95495600  0.47014450  1
  N  1441  1  0.55075500  0.06794800  0.97035950  1
  N  1444  1  0.54911800  0.01585650  0.00098800  1
  N  1459  1  0.54321500  0.25061100  0.31813300  1
  N  1462  1  0.54164300  0.21999000  0.26601850  1
  N  1477  1  0.55832200  0.72014450  0.15301900  1
  N  1480  1  0.55649500  0.75082750  0.20509100  1
  N  1495  1  0.55801000  0.72020750  0.81816200  1
  N  1498  1  0.55679600  0.75075100  0.76601950  1
  N  1513  1  0.54315500  0.25060350  0.65299950  1
  N  1516  1  0.54174000  0.22003850  0.70512550  1
  N  1531  1  0.17041700  0.71973800  0.65343200  1
  N  1534  1  0.17220600  0.75041150  0.70551600  1
  N  1549  1  0.18545700  0.25018350  0.81855450  1
  N  1552  1  0.18708300  0.21955000  0.76645950  1
  N  1567  1  0.17804600  0.40239950  0.47079750  1
  N  1570  1  0.17948100  0.45453050  0.50136500  1
  N  1585  1  0.19305900  0.56752950  0.00120850  1
  N  1588  1  0.19447700  0.51540300  0.97064350  1
  N  1603  1  0.55066200  0.40286900  0.00077800  1
  N  1606  1  0.54917000  0.45494800  0.97015850  1
  N  1621  1  0.53574900  0.56796000  0.47034700  1
  N  1624  1  0.53412000  0.51586600  0.50097850  1
  N  1639  1  0.84618600  0.99936400  0.07432700  1
  N  1642  1  0.89717800  0.97118500  0.02220100  1
  N  1657  1  0.83119000  0.97104700  0.39721250  1
  N  1660  1  0.88215600  0.99915200  0.44940300  1
  N  1675  1  0.83871200  0.14665350  0.24993150  1
  N  1678  1  0.88966200  0.19877550  0.22182650  1
  N  1693  1  0.82546600  0.82382950  0.22191300  1
  N  1696  1  0.87488600  0.77143900  0.25017900  1
  N  1711  1  0.89756100  0.97099200  0.89725050  1
  N  1714  1  0.84648600  0.99918700  0.94937750  1
  N  1729  1  0.88253800  0.99934600  0.57435400  1
  N  1732  1  0.83148400  0.97122500  0.52216300  1
  N  1747  1  0.90321600  0.82377350  0.72196500  1
  N  1750  1  0.85387600  0.77145200  0.75016500  1
  N  1765  1  0.89004400  0.14661500  0.74996150  1
  N  1768  1  0.83898400  0.19881150  0.72179200  1
  N  1783  1  0.83117400  0.49937400  0.57431700  1
  N  1786  1  0.88216600  0.47119450  0.52219050  1
  N  1801  1  0.84620200  0.47103600  0.89722300  1
  N  1804  1  0.89716200  0.49914150  0.94941350  1
  N  1819  1  0.82545600  0.64659300  0.74961500  1
  N  1822  1  0.87490200  0.69891650  0.72140350  1
  N  1837  1  0.83863800  0.32376450  0.72160300  1
  N  1840  1  0.88978800  0.27156650  0.74978700  1
  N  1855  1  0.88254800  0.47100150  0.39724050  1
  N  1858  1  0.83147400  0.49919650  0.44936700  1
  N  1873  1  0.89754600  0.49933550  0.07436400  1
  N  1876  1  0.84649900  0.47121450  0.02217300  1
  N  1891  1  0.89002400  0.32372550  0.22163150  1
  N  1894  1  0.83899000  0.27160250  0.24975250  1
  N  1909  1  0.90328400  0.64653800  0.24966600  1
  N  1912  1  0.85376200  0.69893000  0.22138900  1
  O  8  1  0.05180300  0.94871400  0.02701900  1
  O  15  1  0.13994900  0.87147600  0.10581900  1
  O  32  1  0.03679100  0.02141400  0.44480150  1
  O  39  1  0.12499900  0.09853650  0.36611650  1
  O  56  1  0.04428800  0.19396550  0.19956700  1
  O  63  1  0.13256400  0.11516500  0.12246150  1
  O  80  1  0.02924800  0.77617900  0.27225700  1
  O  87  1  0.11746700  0.85486250  0.34948250  1
  O  104  1  0.67474600  0.94851000  0.44526250  1
  O  111  1  0.58572600  0.87285650  0.36532900  1
  O  128  1  0.68976400  0.02209900  0.02604600  1
  O  135  1  0.60045400  0.09789550  0.10583600  1
  O  152  1  0.68223600  0.19491450  0.27247150  1
  O  159  1  0.59348400  0.11501800  0.34821050  1
  O  176  1  0.69444000  0.77494100  0.19786150  1
  O  183  1  0.60768400  0.85559300  0.12311850  1
  O  200  1  0.69176600  0.02215550  0.94446250  1
  O  207  1  0.60372000  0.09896650  0.86568500  1
  O  224  1  0.67662800  0.94845500  0.52684550  1
  O  231  1  0.58865000  0.87176850  0.60552400  1
  O  248  1  0.69938800  0.77639850  0.77203500  1
  O  255  1  0.61115400  0.85520200  0.84912300  1
  O  272  1  0.68449300  0.19419950  0.69932350  1
  O  279  1  0.59623000  0.11552350  0.62208100  1
  O  296  1  0.04033200  0.02219100  0.52652900  1
  O  303  1  0.12801300  0.09759750  0.60631900  1
  O  320  1  0.05532900  0.94794300  0.94530300  1
  O  327  1  0.14332000  0.87239600  0.86566500  1
  O  344  1  0.03432900  0.77473400  0.69806250  1
  O  351  1  0.12021300  0.85543900  0.62329900  1
  O  368  1  0.04643700  0.19469300  0.77269400  1
  O  375  1  0.13602100  0.11484250  0.84840350  1
  O  392  1  0.03679200  0.44872450  0.52700900  1
  O  399  1  0.12494100  0.37148600  0.60580850  1
  O  416  1  0.05179900  0.52140400  0.94481200  1
  O  423  1  0.14001200  0.59852650  0.86612700  1
  O  440  1  0.02955100  0.69387350  0.69903500  1
  O  447  1  0.11760700  0.61509550  0.62237100  1
  O  464  1  0.04437000  0.27627950  0.77275800  1
  O  471  1  0.13253100  0.35492900  0.84957100  1
  O  488  1  0.68975800  0.44850250  0.94527800  1
  O  495  1  0.60073800  0.37284700  0.86534100  1
  O  512  1  0.67475200  0.52210900  0.52603650  1
  O  519  1  0.58544200  0.59790500  0.60582600  1
  O  536  1  0.69181800  0.69525000  0.77358850  1
  O  543  1  0.60842200  0.61485300  0.84835300  1
  O  560  1  0.68090500  0.27591650  0.69855950  1
  O  567  1  0.59266300  0.35561700  0.62309850  1
  O  584  1  0.67675400  0.52216750  0.44445250  1
  O  591  1  0.58870800  0.59897650  0.36567450  1
  O  608  1  0.69177600  0.44846300  0.02686900  1
  O  615  1  0.60365800  0.37175800  0.10553350  1
  O  632  1  0.68423100  0.27652350  0.27250300  1
  O  639  1  0.59609400  0.35528700  0.34918900  1
  O  656  1  0.69931400  0.69409000  0.19880550  1
  O  663  1  0.61119000  0.61543250  0.12200900  1
  O  680  1  0.05542300  0.52218500  0.02653000  1
  O  687  1  0.14302600  0.59758650  0.10632900  1
  O  704  1  0.04031800  0.44795300  0.44529300  1
  O  711  1  0.12830700  0.37240550  0.36565550  1
  O  728  1  0.04782700  0.27569200  0.19878350  1
  O  735  1  0.13527800  0.35543550  0.12329050  1
  O  752  1  0.03685100  0.69503850  0.27378650  1
  O  759  1  0.12105700  0.61469200  0.34852750  1
  O  776  1  0.91880600  0.85038650  0.13827150  1
  O  779  1  0.83389600  0.90570900  0.11907950  1
  O  794  1  0.90374600  0.11992600  0.33333333  1
  O  797  1  0.81888200  0.06471700  0.35243450  1
  O  812  1  0.91128400  0.08270550  0.10104900  1
  O  815  1  0.82637400  0.10189000  0.15625800  1
  O  830  1  0.89629000  0.88762000  0.37057650  1
  O  833  1  0.81137600  0.86854300  0.31525650  1
  O  848  1  0.82492600  0.11998300  0.83330850  1
  O  851  1  0.90985200  0.06465650  0.85249900  1
  O  866  1  0.80996600  0.85045400  0.63820100  1
  O  869  1  0.89483600  0.90566800  0.61912800  1
  O  884  1  0.83241600  0.88765700  0.87053100  1
  O  887  1  0.91734400  0.86847000  0.81531850  1
  O  902  1  0.81739400  0.08276650  0.60098750  1
  O  905  1  0.90231600  0.10184450  0.65631100  1
  O  920  1  0.90381000  0.35039850  0.63825950  1
  O  923  1  0.81888800  0.40572400  0.61906750  1
  O  938  1  0.91877400  0.61991250  0.83337550  1
  O  941  1  0.83390600  0.56469950  0.85245000  1
  O  956  1  0.89626200  0.58271250  0.60103400  1
  O  959  1  0.81134000  0.60189800  0.65624750  1
  O  974  1  0.91129000  0.38761250  0.87059200  1
  O  977  1  0.82636800  0.36853500  0.81526750  1
  O  992  1  0.80989800  0.61999050  0.33329900  1
  O  995  1  0.89483000  0.56465900  0.35249350  1
  O  1010  1  0.82496400  0.35044550  0.13820950  1
  O  1013  1  0.90984200  0.40566200  0.11913550  1
  O  1028  1  0.81742000  0.38767000  0.37052550  1
  O  1031  1  0.90235200  0.36848200  0.31530850  1
  O  1046  1  0.83241600  0.58275350  0.10099200  1
  O  1049  1  0.91734800  0.60183200  0.15632100  1
  O  1064  1  0.33099900  0.82214450  0.10916500  1
  O  1067  1  0.41655500  0.87723000  0.09045100  1
  O  1082  1  0.31625800  0.14766250  0.36295800  1
  O  1085  1  0.40250200  0.09257200  0.38173550  1
  O  1100  1  0.32331500  0.11180600  0.07335700  1
  O  1103  1  0.40955600  0.13046400  0.12849000  1
  O  1118  1  0.30901600  0.85801300  0.39886650  1
  O  1121  1  0.39452400  0.83919500  0.34381650  1
  O  1136  1  0.41268100  0.14822200  0.86241350  1
  O  1139  1  0.32714500  0.09313850  0.88112800  1
  O  1154  1  0.39748400  0.82271850  0.60860200  1
  O  1157  1  0.31120000  0.87781450  0.58982650  1
  O  1172  1  0.42041900  0.85855650  0.89822400  1
  O  1175  1  0.33417700  0.83989800  0.84308850  1
  O  1190  1  0.40470200  0.11237250  0.57269400  1
  O  1193  1  0.31918900  0.13119050  0.62774750  1
  O  1208  1  0.31600800  0.32215200  0.60915500  1
  O  1211  1  0.40154700  0.37723700  0.59044250  1
  O  1226  1  0.33121500  0.64765000  0.86297250  1
  O  1229  1  0.41748900  0.59255400  0.88175050  1
  O  1244  1  0.30830800  0.61181550  0.57334550  1
  O  1247  1  0.39455500  0.63047300  0.62847950  1
  O  1262  1  0.32402800  0.35800400  0.89887800  1
  O  1265  1  0.40954500  0.33918600  0.84382750  1
  O  1280  1  0.39772600  0.64823300  0.36240950  1
  O  1283  1  0.31216000  0.59314300  0.38112150  1
  O  1298  1  0.41246600  0.32271000  0.10861400  1
  O  1301  1  0.32621200  0.37780450  0.08983600  1
  O  1316  1  0.40540600  0.35856800  0.39821500  1
  O  1319  1  0.31915700  0.33990900  0.34307900  1
  O  1334  1  0.41971000  0.61236050  0.07270250  1
  O  1337  1  0.33419100  0.63117950  0.12775650  1
  O  1352  1  0.19394400  0.89953900  0.99612250  1
  O  1355  1  0.19213600  0.95732150  0.97610050  1
  O  1370  1  0.17891700  0.07039500  0.47588500  1
  O  1373  1  0.17712900  0.01261800  0.49590500  1
  O  1388  1  0.18637000  0.22484550  0.15057850  1
  O  1391  1  0.18470800  0.24487550  0.20835700  1
  O  1406  1  0.17133700  0.74510600  0.32142750  1
  O  1409  1  0.16972000  0.72505550  0.26364950  1
  O  1424  1  0.53468500  0.89997600  0.47548100  1
  O  1427  1  0.53671100  0.95778050  0.49539350  1
  O  1442  1  0.54970400  0.07083650  0.99565750  1
  O  1445  1  0.55169200  0.01303650  0.97572950  1
  O  1460  1  0.54224800  0.22530850  0.32101300  1
  O  1463  1  0.54412200  0.24524900  0.26321500  1
  O  1478  1  0.55714800  0.74542900  0.15010950  1
  O  1481  1  0.55925600  0.72556900  0.20793200  1
  O  1496  1  0.55732600  0.74552150  0.82100950  1
  O  1499  1  0.55899800  0.72546750  0.76323550  1
  O  1514  1  0.54228800  0.22529150  0.65014450  1
  O  1517  1  0.54407300  0.24531000  0.70792500  1
  O  1532  1  0.17155100  0.74502000  0.65052300  1
  O  1535  1  0.16952800  0.72515250  0.70834200  1
  O  1550  1  0.18648000  0.22488300  0.82144250  1
  O  1553  1  0.18452300  0.24481250  0.76363750  1
  O  1568  1  0.17893300  0.39954850  0.49611250  1
  O  1571  1  0.17712300  0.45733150  0.47609000  1
  O  1586  1  0.19392800  0.57038400  0.97589650  1
  O  1589  1  0.19213800  0.51260350  0.99590900  1
  O  1604  1  0.54977200  0.39997200  0.97548600  1
  O  1607  1  0.55158100  0.45777250  0.99542900  1
  O  1622  1  0.53472400  0.57084850  0.49564600  1
  O  1625  1  0.53668400  0.51304350  0.47572000  1
  O  1640  1  0.88903800  0.97578100  0.07704600  1
  O  1643  1  0.85429000  0.99485300  0.01958300  1
  O  1658  1  0.87403600  0.99457100  0.39455400  1
  O  1661  1  0.83927400  0.97554200  0.45196400  1
  O  1676  1  0.88156800  0.14393650  0.22640950  1
  O  1679  1  0.84680000  0.20139500  0.24543800  1
  O  1694  1  0.86686800  0.82666900  0.24556500  1
  O  1697  1  0.83290000  0.76911150  0.22645850  1
  O  1712  1  0.85474200  0.99457050  0.89452200  1
  O  1715  1  0.88943200  0.97551900  0.95200300  1
  O  1730  1  0.83973000  0.97582550  0.57702150  1
  O  1733  1  0.87442400  0.99483400  0.51959300  1
  O  1748  1  0.86186000  0.82666800  0.74556200  1
  O  1751  1  0.89580000  0.76907050  0.72649650  1
  O  1766  1  0.84709400  0.14395450  0.72638500  1
  O  1769  1  0.88194000  0.20137000  0.74545450  1
  O  1784  1  0.87402800  0.47579050  0.57703600  1
  O  1787  1  0.83928400  0.49486300  0.51957300  1
  O  1802  1  0.88904400  0.49456150  0.89456450  1
  O  1805  1  0.85428600  0.47553200  0.95197450  1
  O  1820  1  0.86678600  0.64369300  0.72602350  1
  O  1823  1  0.83288400  0.70130700  0.74507000  1
  O  1838  1  0.88155800  0.32643300  0.74517550  1
  O  1841  1  0.84676800  0.26899900  0.72612600  1
  O  1856  1  0.83973000  0.49458050  0.39451150  1
  O  1859  1  0.87442400  0.47552900  0.45199300  1
  O  1874  1  0.85474200  0.47581500  0.07703200  1
  O  1877  1  0.88943600  0.49482350  0.01960300  1
  O  1892  1  0.84720400  0.32645100  0.24515000  1
  O  1895  1  0.88191400  0.26897500  0.22614200  1
  O  1910  1  0.86190200  0.64369250  0.22601900  1
  O  1913  1  0.89583600  0.70126600  0.24510800  1
