# generated using pymatgen
data_H9C20(N2O3)3
_symmetry_space_group_name_H-M   'P 1'
_cell_length_a   51.61880000
_cell_length_b   51.61880000
_cell_length_c   69.93760000
_cell_angle_alpha   90.00000000
_cell_angle_beta   90.00000000
_cell_angle_gamma   90.00000000
_symmetry_Int_Tables_number   1
_chemical_formula_structural   H9C20(N2O3)3
_chemical_formula_sum   'H288 C640 N192 O288'
_cell_volume   186348.77110876
_cell_formula_units_Z   32
loop_
 _symmetry_equiv_pos_site_id
 _symmetry_equiv_pos_as_xyz
  1  'x, y, z'
loop_
 _atom_site_type_symbol
 _atom_site_label
 _atom_site_symmetry_multiplicity
 _atom_site_fract_x
 _atom_site_fract_y
 _atom_site_fract_z
 _atom_site_occupancy
  H  7  1  0.12143600  0.42300100  0.87236100  1
  H  16  1  0.18057900  0.36629300  0.87656800  1
  H  17  1  0.13110200  0.41218300  0.80358700  1
  H  18  1  0.16244900  0.36926100  0.94496400  1
  H  19  1  0.19488500  0.39997900  0.85292900  1
  H  20  1  0.15173000  0.43652900  0.89817500  1
  H  25  1  0.17978100  0.33289800  0.91792200  1
  H  26  1  0.19912700  0.39335700  0.81770100  1
  H  27  1  0.09106000  0.42537100  0.83079200  1
  H  28  1  0.13944600  0.43372600  0.93422600  1
  H  35  1  0.37601300  0.56758400  0.37229200  1
  H  44  1  0.31723200  0.62474200  0.37648100  1
  H  45  1  0.36510900  0.57711600  0.30352900  1
  H  46  1  0.33613000  0.62291300  0.44482800  1
  H  47  1  0.30237300  0.59075200  0.35337400  1
  H  48  1  0.34612400  0.55478900  0.39857800  1
  H  53  1  0.31836500  0.65884800  0.41762100  1
  H  54  1  0.29778700  0.59699600  0.31806800  1
  H  55  1  0.40556800  0.56435500  0.33048300  1
  H  56  1  0.35876900  0.55822100  0.43464100  1
  H  63  1  0.80762500  0.86722300  0.11973900  1
  H  72  1  0.87504400  0.91611700  0.12541400  1
  H  73  1  0.82098200  0.87894400  0.05173700  1
  H  74  1  0.87189200  0.89583100  0.19343700  1
  H  75  1  0.84490400  0.93581300  0.10334300  1
  H  76  1  0.80219700  0.89514700  0.14746300  1
  H  81  1  0.90973900  0.91154300  0.16548800  1
  H  82  1  0.85179500  0.94365900  0.06961000  1
  H  83  1  0.78537700  0.85039200  0.07182200  1
  H  84  1  0.80424400  0.88136600  0.18347400  1
  H  91  1  0.68996600  0.12434500  0.62006000  1
  H  100  1  0.62241300  0.07582700  0.62545500  1
  H  101  1  0.67792600  0.11142900  0.55210000  1
  H  102  1  0.62420700  0.09717300  0.69336700  1
  H  103  1  0.65305700  0.05544500  0.60404900  1
  H  104  1  0.69488700  0.09675600  0.64819200  1
  H  109  1  0.58686000  0.08103100  0.66519900  1
  H  110  1  0.64708400  0.04636000  0.57067800  1
  H  111  1  0.71260100  0.14059000  0.57212900  1
  H  112  1  0.69227000  0.11085200  0.68415200  1
  H  119  1  0.37532500  0.42688400  0.62487000  1
  H  128  1  0.31846600  0.36740500  0.62203500  1
  H  129  1  0.37526700  0.40946500  0.69342300  1
  H  130  1  0.32719100  0.37662900  0.55310200  1
  H  131  1  0.30624300  0.39755700  0.64813200  1
  H  132  1  0.34111600  0.44061100  0.60195100  1
  H  137  1  0.31454300  0.33719900  0.57987900  1
  H  138  1  0.31068200  0.38550300  0.68410300  1
  H  139  1  0.41025000  0.42768000  0.66584400  1
  H  140  1  0.34759800  0.44396500  0.56670800  1
  H  147  1  0.12184800  0.56427400  0.12500600  1
  H  156  1  0.17857100  0.62387600  0.12228300  1
  H  157  1  0.12176800  0.58147800  0.19356300  1
  H  158  1  0.16941300  0.61491600  0.05335200  1
  H  159  1  0.19082900  0.59367900  0.14836900  1
  H  160  1  0.15603100  0.55068500  0.10209700  1
  H  165  1  0.18223600  0.65422700  0.08008600  1
  H  166  1  0.18637200  0.60552800  0.18437700  1
  H  167  1  0.08684200  0.56330300  0.16583800  1
  H  168  1  0.14932000  0.54743700  0.06690000  1
  H  175  1  0.69531700  0.86914100  0.37784400  1
  H  184  1  0.62303300  0.91257500  0.37248700  1
  H  185  1  0.67653100  0.86886600  0.44579800  1
  H  186  1  0.63313200  0.90379900  0.30373500  1
  H  187  1  0.64818100  0.92971800  0.39785300  1
  H  188  1  0.69902100  0.90047100  0.35274900  1
  H  193  1  0.59149600  0.91279200  0.33204900  1
  H  194  1  0.63704700  0.92571000  0.43429200  1
  H  195  1  0.72007000  0.85090200  0.42434600  1
  H  196  1  0.70209400  0.89240400  0.31685300  1
  H  203  1  0.80150100  0.12175400  0.87748300  1
  H  212  1  0.87395200  0.07838300  0.87217900  1
  H  213  1  0.82023700  0.12251200  0.94543800  1
  H  214  1  0.86361200  0.08625000  0.80337700  1
  H  215  1  0.84897200  0.06154500  0.89768200  1
  H  216  1  0.79790600  0.09035700  0.85251700  1
  H  221  1  0.90528500  0.07750900  0.83153900  1
  H  222  1  0.86006100  0.06592700  0.93419300  1
  H  223  1  0.77647200  0.13995600  0.92387700  1
  H  224  1  0.79511600  0.09837700  0.81642800  1
  H  231  1  0.88139100  0.55945500  0.12810700  1
  H  240  1  0.82785200  0.62116000  0.12146400  1
  H  241  1  0.86480600  0.57245500  0.19577600  1
  H  242  1  0.84918000  0.61893800  0.05343800  1
  H  243  1  0.80797900  0.58833100  0.14260200  1
  H  244  1  0.85274000  0.54953300  0.09954000  1
  H  249  1  0.83150200  0.65621700  0.08131000  1
  H  250  1  0.79915100  0.59612800  0.17614900  1
  H  251  1  0.90540500  0.55591200  0.17263800  1
  H  252  1  0.86588300  0.55198900  0.06311500  1
  H  259  1  0.61538100  0.43174400  0.62805700  1
  H  268  1  0.66886500  0.36998600  0.62143000  1
  H  269  1  0.63233200  0.41908200  0.69564800  1
  H  270  1  0.64698200  0.37169400  0.55347600  1
  H  271  1  0.68891000  0.40297400  0.64234400  1
  H  272  1  0.64381800  0.44145400  0.59931900  1
  H  277  1  0.66497300  0.33463400  0.58135300  1
  H  278  1  0.69817600  0.39554000  0.67581400  1
  H  279  1  0.59144800  0.43514000  0.67230100  1
  H  280  1  0.63048800  0.43886800  0.56297500  1
  H  287  1  0.17085600  0.12682900  0.87427300  1
  H  296  1  0.11960300  0.06079600  0.86619300  1
  H  297  1  0.15433900  0.11612500  0.94219500  1
  H  298  1  0.12776800  0.07884400  0.79821600  1
  H  299  1  0.14915300  0.05205300  0.89202400  1
  H  300  1  0.18708000  0.09975600  0.84902600  1
  H  305  1  0.09995800  0.04241200  0.81796100  1
  H  306  1  0.13961700  0.04673100  0.92678200  1
  H  307  1  0.16885400  0.15781100  0.91345300  1
  H  308  1  0.18785000  0.11087900  0.81269600  1
  H  315  1  0.32569200  0.86450200  0.37432800  1
  H  324  1  0.37677600  0.93081700  0.36647500  1
  H  325  1  0.34180600  0.87519300  0.44227300  1
  H  326  1  0.36960200  0.91255000  0.29851200  1
  H  327  1  0.34711800  0.93932900  0.39215300  1
  H  328  1  0.30972500  0.89140800  0.34894800  1
  H  333  1  0.39643700  0.94994500  0.31840100  1
  H  334  1  0.35661100  0.94456000  0.42692200  1
  H  335  1  0.32762500  0.83348400  0.41333600  1
  H  336  1  0.30932600  0.88025900  0.31264200  1
  H  343  1  0.62176600  0.54982500  0.36866200  1
  H  352  1  0.66522700  0.62182200  0.37483000  1
  H  353  1  0.62145400  0.56984300  0.30085700  1
  H  354  1  0.65635200  0.60997800  0.44340700  1
  H  355  1  0.68245300  0.59707400  0.34903100  1
  H  356  1  0.65343500  0.54528600  0.39350700  1
  H  361  1  0.66499300  0.65250500  0.41532600  1
  H  362  1  0.67949500  0.60838300  0.31275900  1
  H  363  1  0.60307300  0.52646900  0.32166800  1
  H  364  1  0.64553100  0.54106300  0.42926400  1
  H  371  1  0.87528300  0.44139000  0.86870200  1
  H  380  1  0.83193000  0.36939900  0.87471400  1
  H  381  1  0.87512600  0.42185400  0.80082300  1
  H  382  1  0.84122500  0.38081100  0.94333300  1
  H  383  1  0.81440500  0.39438600  0.84908700  1
  H  384  1  0.84364300  0.44582800  0.89365100  1
  H  389  1  0.83238100  0.33848500  0.91530500  1
  H  390  1  0.81733100  0.38328300  0.81271800  1
  H  391  1  0.89388800  0.46490700  0.82173100  1
  H  392  1  0.85172900  0.44979600  0.92944800  1
  H  399  1  0.32150900  0.12733700  0.61639400  1
  H  408  1  0.38179500  0.07157300  0.62516200  1
  H  409  1  0.34041300  0.11700900  0.54843900  1
  H  410  1  0.36888100  0.08862200  0.69295400  1
  H  411  1  0.35282900  0.05576100  0.59942600  1
  H  412  1  0.30736900  0.09619300  0.64150200  1
  H  417  1  0.41085800  0.07375400  0.66583000  1
  H  418  1  0.36508400  0.05441500  0.56330800  1
  H  419  1  0.32091600  0.15581000  0.57306300  1
  H  420  1  0.30101100  0.10529400  0.67634900  1
  H  427  1  0.17600000  0.86388200  0.11630600  1
  H  436  1  0.11543300  0.91937700  0.12510100  1
  H  437  1  0.15737500  0.87459100  0.04836500  1
  H  438  1  0.12802600  0.90200900  0.19290600  1
  H  439  1  0.14444100  0.93542900  0.09953000  1
  H  440  1  0.18983400  0.89486600  0.14160100  1
  H  445  1  0.08615400  0.91702100  0.16575800  1
  H  446  1  0.13228500  0.93692500  0.06341800  1
  H  447  1  0.17682700  0.83570800  0.07293800  1
  H  448  1  0.19597900  0.88556900  0.17647000  1
  H  455  1  0.29161500  0.37874400  0.71413700  1
  H  462  1  0.17949400  0.42833500  0.76750600  1
  H  463  1  0.24126900  0.42014200  0.80619800  1
  H  464  1  0.29478400  0.46019100  0.71327200  1
  H  485  1  0.20645200  0.61220800  0.21395800  1
  H  492  1  0.31557900  0.56220300  0.26809100  1
  H  493  1  0.25482400  0.56926600  0.30771900  1
  H  494  1  0.19975900  0.53098900  0.21466400  1
  H  515  1  0.86989700  0.03706900  0.95949000  1
  H  522  1  0.82149200  0.92594200  0.01630000  1
  H  523  1  0.83359600  0.98736000  0.05477400  1
  H  524  1  0.78879500  0.04052100  0.96526400  1
  H  545  1  0.62724100  0.95428500  0.45977300  1
  H  552  1  0.67588800  0.06539500  0.51670200  1
  H  553  1  0.66411500  0.00367300  0.55497500  1
  H  554  1  0.70838200  0.95102000  0.46531500  1
  H  575  1  0.70767100  0.61758900  0.28657000  1
  H  582  1  0.81670700  0.56742900  0.23041600  1
  H  583  1  0.75678900  0.57831300  0.19052700  1
  H  584  1  0.70102400  0.53676000  0.28057600  1
  H  605  1  0.78909700  0.37409800  0.78659400  1
  H  612  1  0.68025500  0.42399700  0.73021000  1
  H  613  1  0.74030100  0.41319300  0.69041300  1
  H  614  1  0.79569900  0.45493100  0.78059200  1
  H  635  1  0.12458000  0.95922100  0.03462600  1
  H  642  1  0.17325000  0.06970100  0.97841700  1
  H  643  1  0.16308300  0.00656300  0.94118100  1
  H  644  1  0.20591900  0.95423400  0.03292200  1
  H  665  1  0.37251800  0.03213600  0.53443400  1
  H  672  1  0.32316500  0.92164600  0.47854000  1
  H  673  1  0.33305100  0.98477000  0.44124900  1
  H  674  1  0.29117500  0.03728400  0.53314100  1
  H  695  1  0.78982500  0.87604200  0.21567200  1
  H  702  1  0.67978600  0.92791100  0.26830400  1
  H  703  1  0.74257700  0.92317600  0.30643300  1
  H  704  1  0.79481600  0.95719300  0.21135600  1
  H  725  1  0.70722500  0.11576800  0.71619600  1
  H  732  1  0.81533900  0.06302800  0.76835400  1
  H  733  1  0.75380100  0.06592400  0.80762300  1
  H  734  1  0.69971500  0.03480100  0.71217800  1
  H  755  1  0.36506300  0.53818400  0.46457300  1
  H  762  1  0.31296800  0.42574800  0.51670500  1
  H  763  1  0.32090900  0.48700300  0.55586900  1
  H  764  1  0.28367800  0.54240000  0.46326700  1
  H  785  1  0.13266300  0.45337800  0.96422300  1
  H  792  1  0.18392700  0.56587400  0.01679500  1
  H  793  1  0.17580100  0.50455300  0.05588100  1
  H  794  1  0.21407500  0.44950300  0.96344500  1
  H  815  1  0.21309900  0.11885900  0.78510200  1
  H  822  1  0.32096500  0.07116000  0.72791200  1
  H  823  1  0.25931100  0.08115900  0.68936800  1
  H  824  1  0.20615800  0.03780400  0.78127100  1
  H  845  1  0.28406900  0.87226800  0.28505400  1
  H  852  1  0.17606700  0.91982300  0.22797200  1
  H  853  1  0.23766600  0.90988800  0.18936900  1
  H  854  1  0.29094100  0.95333000  0.28123100  1
  H  875  1  0.62637700  0.45532900  0.53118400  1
  H  882  1  0.68043900  0.56391900  0.47837700  1
  H  883  1  0.67527800  0.50091300  0.44047400  1
  H  884  1  0.70736100  0.44879800  0.53601700  1
  H  905  1  0.87010400  0.53563500  0.03134400  1
  H  912  1  0.81666800  0.42687800  0.97843600  1
  H  913  1  0.82170300  0.48989600  0.94053500  1
  H  914  1  0.78907900  0.54182000  0.03607000  1
  H  935  1  0.18118700  0.29824200  0.88452300  1
  H  942  1  0.20143600  0.18429900  0.93270500  1
  H  943  1  0.23120300  0.17425800  0.87727000  1
  H  944  1  0.25078100  0.31361300  0.91353200  1
  H  965  1  0.31638900  0.69339700  0.38431600  1
  H  972  1  0.29512300  0.80687300  0.43267200  1
  H  973  1  0.26531400  0.81700500  0.37725600  1
  H  974  1  0.24699000  0.67731200  0.41336200  1
  H  995  1  0.94630700  0.91657200  0.13705100  1
  H  1002  1  0.05861800  0.94941600  0.18349900  1
  H  1003  1  0.06575400  0.97500600  0.12670400  1
  H  1004  1  0.92560500  0.98762500  0.16206200  1
  H  1025  1  0.55028800  0.07557300  0.63718300  1
  H  1032  1  0.43841000  0.04127700  0.68356000  1
  H  1033  1  0.43145400  0.01620100  0.62661700  1
  H  1034  1  0.57172200  0.00448300  0.66179900  1
  H  1055  1  0.31643700  0.30078600  0.61302200  1
  H  1062  1  0.29182400  0.18849800  0.56239600  1
  H  1063  1  0.26771900  0.17537600  0.61899500  1
  H  1064  1  0.24475000  0.31625100  0.58698800  1
  H  1085  1  0.18044500  0.69088300  0.11292600  1
  H  1092  1  0.20590800  0.80295600  0.06233100  1
  H  1093  1  0.22976100  0.81601700  0.11899800  1
  H  1094  1  0.25226100  0.67498100  0.08723600  1
  H  1115  1  0.55442800  0.91621700  0.36080300  1
  H  1122  1  0.44214700  0.94937800  0.31490500  1
  H  1123  1  0.43378600  0.97299700  0.37207500  1
  H  1124  1  0.57404300  0.98839300  0.33710100  1
  H  1145  1  0.94248700  0.07459700  0.86056900  1
  H  1152  1  0.05460400  0.04141600  0.81453100  1
  H  1153  1  0.06323000  0.01801000  0.87174200  1
  H  1154  1  0.92287800  0.00228700  0.83709200  1
  H  1175  1  0.82663000  0.69172900  0.11080300  1
  H  1182  1  0.78927500  0.80454700  0.06714400  1
  H  1183  1  0.76533800  0.80957000  0.12445500  1
  H  1184  1  0.75537800  0.67032000  0.08643000  1
  H  1205  1  0.67017500  0.29905000  0.61066300  1
  H  1212  1  0.70861100  0.18638100  0.56732600  1
  H  1213  1  0.73255000  0.18183400  0.62465900  1
  H  1214  1  0.74132700  0.32101500  0.58640400  1
  H  1235  1  0.66946800  0.69095200  0.38963300  1
  H  1242  1  0.71226200  0.80384100  0.43095000  1
  H  1243  1  0.73092000  0.80694900  0.37254500  1
  H  1244  1  0.74282300  0.66807100  0.40947400  1
  H  1265  1  0.82813300  0.29977900  0.88997100  1
  H  1272  1  0.78411200  0.18698100  0.93073700  1
  H  1273  1  0.76654500  0.18424200  0.87212900  1
  H  1274  1  0.75445400  0.32303000  0.90890800  1
  H  1295  1  0.44531300  0.42940000  0.63323000  1
  H  1302  1  0.55684200  0.46141000  0.68253600  1
  H  1303  1  0.56715200  0.48588900  0.62570100  1
  H  1304  1  0.42586800  0.49996500  0.65947800  1
  H  1325  1  0.05215600  0.56149900  0.13286300  1
  H  1332  1  0.94057300  0.53040600  0.18232500  1
  H  1333  1  0.92989100  0.50553700  0.12561600  1
  H  1334  1  0.07117400  0.49116400  0.15960500  1
  H  1355  1  0.05466200  0.42666300  0.86129000  1
  H  1362  1  0.94111500  0.45956200  0.81675300  1
  H  1363  1  0.93440100  0.48196400  0.87427000  1
  H  1364  1  0.07369100  0.49908400  0.83773600  1
  H  1385  1  0.44213800  0.56370000  0.36120600  1
  H  1392  1  0.55585400  0.53150800  0.31664800  1
  H  1393  1  0.56267100  0.50922200  0.37419400  1
  H  1394  1  0.42350300  0.49112600  0.33774100  1
  C  1  1  0.15935300  0.41077100  0.86553200  1
  C  2  1  0.13466800  0.42121300  0.86149400  1
  C  3  1  0.12723600  0.42788700  0.84268900  1
  C  4  1  0.14461100  0.42325100  0.82740400  1
  C  5  1  0.16979800  0.41338700  0.83115000  1
  C  6  1  0.17673300  0.40716400  0.85016100  1
  C  9  1  0.16588900  0.40289800  0.88449000  1
  C  10  1  0.15968700  0.41856500  0.90040600  1
  C  11  1  0.16423500  0.41007000  0.91929400  1
  C  12  1  0.17512800  0.38520700  0.92242800  1
  C  13  1  0.18220000  0.36945500  0.90667600  1
  C  14  1  0.17719900  0.37840900  0.88792000  1
  C  21  1  0.18775100  0.40893300  0.81682100  1
  C  22  1  0.10216400  0.43602400  0.83941000  1
  C  23  1  0.15712300  0.42606600  0.93419000  1
  C  24  1  0.19031500  0.34419300  0.90934400  1
  C  29  1  0.33805700  0.57992900  0.36572800  1
  C  30  1  0.36257200  0.56919200  0.36155000  1
  C  31  1  0.36960200  0.56209200  0.34274100  1
  C  32  1  0.35197300  0.56657900  0.32758900  1
  C  33  1  0.32694100  0.57671700  0.33149300  1
  C  34  1  0.32041100  0.58335800  0.35050300  1
  C  37  1  0.33194100  0.58824200  0.38466000  1
  C  38  1  0.33830700  0.57284400  0.40068500  1
  C  39  1  0.33401200  0.58169200  0.41951700  1
  C  40  1  0.32323700  0.60663800  0.42249000  1
  C  41  1  0.31605000  0.62213400  0.40663000  1
  C  42  1  0.32078300  0.61284100  0.38793000  1
  C  49  1  0.30878500  0.58113600  0.31730700  1
  C  50  1  0.39460700  0.55385700  0.33930400  1
  C  51  1  0.34110300  0.56589500  0.43452600  1
  C  52  1  0.30788600  0.64741400  0.40910500  1
  C  57  1  0.82757100  0.90199800  0.11439900  1
  C  58  1  0.81217000  0.88041800  0.10933700  1
  C  59  1  0.80413600  0.87574600  0.09025600  1
  C  60  1  0.81239600  0.89333400  0.07584900  1
  C  61  1  0.82719500  0.91567500  0.08057000  1
  C  62  1  0.83436900  0.91964800  0.09982300  1
  C  65  1  0.83703500  0.90535900  0.13346900  1
  C  66  1  0.82117400  0.90034300  0.14952000  1
  C  67  1  0.83069200  0.90293300  0.16835400  1
  C  68  1  0.85673100  0.91067500  0.17135000  1
  C  69  1  0.87273700  0.91652700  0.15550600  1
  C  70  1  0.86287400  0.91330400  0.13681700  1
  C  77  1  0.83570800  0.93351700  0.06708300  1
  C  78  1  0.79044700  0.85332300  0.08536200  1
  C  79  1  0.81422700  0.89785200  0.18339200  1
  C  80  1  0.89835700  0.92335800  0.15796400  1
  C  85  1  0.67019600  0.08945400  0.61489300  1
  C  86  1  0.68569100  0.11093500  0.60977000  1
  C  87  1  0.69402700  0.11526600  0.59071000  1
  C  88  1  0.68603200  0.09738600  0.57641300  1
  C  89  1  0.67115500  0.07511300  0.58120600  1
  C  90  1  0.66368100  0.07151600  0.60044400  1
  C  93  1  0.66029100  0.08653500  0.63387700  1
  C  94  1  0.67582400  0.09174800  0.65006800  1
  C  95  1  0.66588000  0.08949200  0.66880600  1
  C  96  1  0.63972500  0.08196500  0.67155200  1
  C  97  1  0.62403100  0.07597300  0.65556800  1
  C  98  1  0.63432600  0.07881300  0.63697500  1
  C  105  1  0.66270100  0.05703900  0.56783100  1
  C  106  1  0.70764400  0.13769900  0.58572000  1
  C  107  1  0.68206400  0.09451200  0.68402300  1
  C  108  1  0.59836000  0.06919500  0.65779000  1
  C  113  1  0.33918700  0.41186000  0.63364100  1
  C  114  1  0.36372400  0.42338500  0.63649200  1
  C  115  1  0.37336000  0.42867200  0.65501300  1
  C  116  1  0.35830200  0.42162800  0.67114100  1
  C  117  1  0.33344700  0.41044600  0.66859600  1
  C  118  1  0.32423700  0.40565500  0.64992500  1
  C  121  1  0.33049800  0.40525000  0.61488100  1
  C  122  1  0.33368700  0.42250100  0.59938900  1
  C  123  1  0.32694300  0.41544400  0.58050800  1
  C  124  1  0.31677200  0.39031200  0.57702900  1
  C  125  1  0.31249100  0.37301900  0.59244600  1
  C  126  1  0.31978700  0.38059400  0.61110800  1
  C  133  1  0.31813600  0.40326200  0.68385600  1
  C  134  1  0.39850200  0.43746300  0.65711500  1
  C  135  1  0.33161600  0.43312500  0.56603600  1
  C  136  1  0.30465100  0.34776500  0.58932700  1
  C  141  1  0.15794600  0.57933200  0.13383000  1
  C  142  1  0.13344600  0.56771000  0.13664000  1
  C  143  1  0.12379200  0.56233400  0.15514100  1
  C  144  1  0.13880100  0.56938400  0.17129000  1
  C  145  1  0.16364300  0.58062800  0.16879300  1
  C  146  1  0.17286200  0.58552000  0.15013700  1
  C  149  1  0.16660400  0.58602900  0.11507700  1
  C  150  1  0.16339400  0.56882800  0.09955500  1
  C  151  1  0.16999000  0.57598400  0.08066500  1
  C  152  1  0.18004100  0.60116900  0.07721000  1
  C  153  1  0.18435300  0.61840700  0.09265600  1
  C  154  1  0.17721300  0.61073300  0.11132700  1
  C  161  1  0.17891500  0.58777300  0.18409100  1
  C  162  1  0.09866400  0.55347700  0.15719200  1
  C  163  1  0.16523600  0.55836300  0.06616600  1
  C  164  1  0.19210200  0.64369800  0.08957500  1
  C  169  1  0.67047100  0.90017900  0.38483000  1
  C  170  1  0.68817200  0.87997500  0.38891800  1
  C  171  1  0.69539400  0.87347900  0.40788400  1
  C  172  1  0.68414100  0.88760600  0.42318500  1
  C  173  1  0.66677700  0.90825500  0.41944300  1
  C  174  1  0.66031600  0.91436700  0.40040300  1
  C  177  1  0.66238700  0.90573800  0.36566800  1
  C  178  1  0.67991000  0.90461300  0.35015400  1
  C  179  1  0.67190300  0.90959900  0.33118100  1
  C  180  1  0.64564500  0.91604700  0.32751900  1
  C  181  1  0.62800400  0.91824000  0.34290000  1
  C  182  1  0.63637700  0.91241000  0.36162500  1
  C  189  1  0.65608100  0.92284300  0.43392800  1
  C  190  1  0.71134200  0.85233500  0.41170000  1
  C  191  1  0.68999700  0.90747800  0.31673700  1
  C  192  1  0.60240900  0.92461100  0.33992600  1
  C  197  1  0.82653700  0.09089700  0.88455900  1
  C  198  1  0.80870400  0.11101200  0.88858500  1
  C  199  1  0.80144300  0.11757000  0.90752900  1
  C  200  1  0.81277800  0.10360100  0.92287600  1
  C  201  1  0.83026800  0.08304200  0.91919700  1
  C  202  1  0.83676700  0.07685500  0.90017900  1
  C  205  1  0.83457800  0.08518900  0.86540600  1
  C  206  1  0.81700900  0.08618100  0.84991800  1
  C  207  1  0.82494400  0.08095000  0.83096800  1
  C  208  1  0.85116000  0.07438800  0.82728400  1
  C  209  1  0.86886200  0.07236900  0.84263900  1
  C  210  1  0.86056900  0.07844800  0.86134400  1
  C  217  1  0.84099700  0.06855800  0.93372300  1
  C  218  1  0.78532700  0.13860200  0.91127600  1
  C  219  1  0.80682700  0.08299800  0.81655300  1
  C  220  1  0.89444400  0.06593000  0.83966200  1
  C  225  1  0.84390100  0.57461900  0.13244100  1
  C  226  1  0.86704700  0.56219300  0.13805300  1
  C  227  1  0.87168700  0.55533700  0.15732700  1
  C  228  1  0.85295100  0.56169300  0.17139300  1
  C  229  1  0.82914600  0.57349500  0.16603500  1
  C  230  1  0.82501600  0.57961100  0.14657900  1
  C  233  1  0.84050600  0.58380900  0.11336600  1
  C  234  1  0.84662000  0.56821800  0.09739400  1
  C  235  1  0.84367200  0.57761600  0.07854800  1
  C  236  1  0.83482400  0.60331200  0.07552300  1
  C  237  1  0.82809000  0.61903500  0.09133400  1
  C  238  1  0.83143400  0.60924400  0.11002600  1
  C  245  1  0.81029100  0.58085900  0.17911300  1
  C  246  1  0.89586400  0.54622800  0.16256200  1
  C  247  1  0.84900300  0.56126700  0.06348700  1
  C  248  1  0.82025800  0.64438200  0.08892500  1
  C  253  1  0.65291200  0.41661200  0.63228800  1
  C  254  1  0.62982500  0.42911500  0.63794200  1
  C  255  1  0.62532500  0.43606000  0.65721600  1
  C  256  1  0.64413800  0.42975300  0.67123000  1
  C  257  1  0.66792000  0.41794300  0.66582200  1
  C  258  1  0.67190700  0.41171900  0.64636500  1
  C  261  1  0.65613500  0.40727400  0.61323400  1
  C  262  1  0.64987800  0.42273800  0.59722400  1
  C  263  1  0.65267400  0.41319900  0.57840400  1
  C  264  1  0.66148600  0.38747700  0.57544600  1
  C  265  1  0.66833500  0.37187100  0.59129300  1
  C  266  1  0.66516300  0.38180900  0.60996000  1
  C  273  1  0.68688200  0.41066900  0.67885100  1
  C  274  1  0.60117700  0.44515600  0.66250400  1
  C  275  1  0.64728800  0.42944500  0.56329100  1
  C  276  1  0.67618600  0.34651700  0.58895700  1
  C  281  1  0.15909400  0.08831300  0.88008600  1
  C  282  1  0.16819600  0.11334900  0.88486200  1
  C  283  1  0.17297400  0.12057100  0.90399800  1
  C  284  1  0.16761300  0.10289800  0.91892000  1
  C  285  1  0.15903300  0.07745100  0.91453100  1
  C  286  1  0.15492800  0.07057300  0.89519600  1
  C  289  1  0.15405600  0.08127400  0.86061800  1
  C  290  1  0.17063100  0.08953500  0.84574300  1
  C  291  1  0.16540100  0.08362200  0.82645000  1
  C  292  1  0.14300000  0.06901100  0.82178600  1
  C  293  1  0.12628300  0.05967400  0.83637500  1
  C  294  1  0.13211400  0.06629700  0.85558600  1
  C  301  1  0.15429000  0.05906800  0.92851800  1
  C  302  1  0.18144600  0.14525400  0.90793400  1
  C  303  1  0.18223300  0.09246000  0.81256800  1
  C  304  1  0.10381200  0.04599700  0.83162600  1
  C  309  1  0.33731500  0.90305300  0.38017200  1
  C  310  1  0.32822200  0.87800400  0.38492000  1
  C  311  1  0.32334800  0.87077300  0.40404300  1
  C  312  1  0.32860300  0.88844400  0.41898200  1
  C  313  1  0.33716600  0.91390400  0.41462100  1
  C  314  1  0.34134500  0.92080100  0.39529800  1
  C  317  1  0.34252300  0.91008400  0.36072300  1
  C  318  1  0.32616800  0.90169200  0.34575400  1
  C  319  1  0.33157500  0.90759800  0.32648500  1
  C  320  1  0.35394300  0.92232500  0.32193900  1
  C  321  1  0.37043700  0.93178500  0.33661900  1
  C  322  1  0.36443100  0.92517900  0.35580200  1
  C  329  1  0.34189300  0.93226600  0.42862400  1
  C  330  1  0.31494600  0.84605900  0.40794700  1
  C  331  1  0.31492000  0.89868500  0.31251600  1
  C  332  1  0.39284400  0.94563700  0.33199500  1
  C  337  1  0.65282700  0.57469800  0.36185300  1
  C  338  1  0.63253900  0.55715400  0.35762300  1
  C  339  1  0.62596600  0.55025100  0.33860900  1
  C  340  1  0.64011800  0.56174700  0.32341000  1
  C  341  1  0.66091500  0.57891400  0.32726200  1
  C  342  1  0.66703100  0.58507800  0.34636300  1
  C  345  1  0.65849900  0.58228200  0.38111100  1
  C  346  1  0.65750700  0.56434100  0.39637600  1
  C  347  1  0.66249400  0.57185000  0.41546500  1
  C  348  1  0.66873200  0.59806400  0.41949100  1
  C  349  1  0.67079700  0.61610900  0.40436400  1
  C  350  1  0.66507600  0.60820700  0.38551000  1
  C  357  1  0.67574100  0.58949500  0.31281800  1
  C  358  1  0.60500700  0.53406400  0.33466800  1
  C  359  1  0.66040900  0.55338600  0.42967800  1
  C  360  1  0.67712400  0.64161600  0.40770400  1
  C  365  1  0.84412700  0.41664900  0.86189200  1
  C  366  1  0.86440500  0.43420100  0.85766800  1
  C  367  1  0.87089700  0.44121200  0.83865900  1
  C  368  1  0.85661900  0.42986500  0.82346300  1
  C  369  1  0.83580700  0.41271200  0.82731800  1
  C  370  1  0.82980500  0.40640800  0.84641300  1
  C  373  1  0.83860600  0.40890400  0.88113600  1
  C  374  1  0.83966200  0.42673800  0.89646500  1
  C  375  1  0.83480700  0.41907800  0.91553700  1
  C  376  1  0.82868500  0.39281800  0.91948700  1
  C  377  1  0.82658700  0.37487000  0.90429800  1
  C  378  1  0.83213700  0.38292700  0.88545300  1
  C  385  1  0.82091500  0.40220300  0.81288400  1
  C  386  1  0.89194100  0.45729900  0.83472400  1
  C  387  1  0.83686400  0.43745500  0.92980800  1
  C  388  1  0.82033900  0.34932300  0.90756400  1
  C  393  1  0.33768000  0.09048800  0.61089200  1
  C  394  1  0.32565900  0.11414300  0.60586600  1
  C  395  1  0.32053700  0.12068400  0.58660000  1
  C  396  1  0.32823900  0.10339400  0.57193900  1
  C  397  1  0.33985300  0.07933200  0.57668100  1
  C  398  1  0.34452600  0.07323100  0.59604700  1
  C  401  1  0.34360000  0.08465700  0.63036700  1
  C  402  1  0.32544600  0.08948800  0.64507000  1
  C  403  1  0.33143200  0.08493000  0.66450000  1
  C  404  1  0.35643400  0.07553900  0.66937700  1
  C  405  1  0.37447800  0.06958200  0.65481300  1
  C  406  1  0.36805600  0.07451700  0.63553500  1
  C  413  1  0.34731600  0.06182400  0.56284300  1
  C  414  1  0.31090600  0.14494600  0.58219900  1
  C  415  1  0.31269400  0.09010100  0.67812100  1
  C  416  1  0.39908200  0.06131900  0.65926900  1
  C  421  1  0.15970500  0.90070000  0.11090400  1
  C  422  1  0.17189400  0.87715200  0.10582200  1
  C  423  1  0.17714100  0.87076900  0.08654300  1
  C  424  1  0.16941500  0.88812100  0.07193000  1
  C  425  1  0.15766100  0.91209500  0.07673000  1
  C  426  1  0.15286500  0.91803400  0.09610800  1
  C  429  1  0.15362900  0.90634900  0.13038400  1
  C  430  1  0.17170700  0.90147100  0.14513100  1
  C  431  1  0.16559500  0.90591100  0.16455500  1
  C  432  1  0.14054500  0.91521000  0.16938700  1
  C  433  1  0.12256600  0.92118400  0.15478400  1
  C  434  1  0.12910900  0.91637400  0.13551100  1
  C  441  1  0.15010600  0.92964100  0.06294200  1
  C  442  1  0.18684900  0.84655500  0.08207900  1
  C  443  1  0.18427800  0.90075400  0.17821600  1
  C  444  1  0.09793800  0.92943300  0.15918300  1
  C  449  1  0.29562900  0.41939400  0.71124100  1
  C  450  1  0.28798600  0.44329600  0.71911100  1
  C  451  1  0.27064200  0.44456900  0.73471800  1
  C  452  1  0.26093000  0.42121100  0.74262900  1
  C  453  1  0.26872400  0.39691000  0.73512000  1
  C  454  1  0.28608000  0.39631500  0.71949500  1
  C  456  1  0.24320400  0.42218000  0.75812500  1
  C  457  1  0.21631700  0.42513000  0.75446600  1
  C  458  1  0.19892600  0.42626200  0.77005800  1
  C  459  1  0.20786200  0.42395800  0.78897700  1
  C  460  1  0.23464300  0.42131200  0.79242700  1
  C  461  1  0.25253800  0.42035100  0.77715600  1
  C  479  1  0.20044300  0.57171100  0.21198500  1
  C  480  1  0.20689000  0.54780900  0.22040800  1
  C  481  1  0.22363600  0.54638300  0.23635900  1
  C  482  1  0.23374800  0.56962600  0.24420900  1
  C  483  1  0.22760100  0.59391200  0.23585500  1
  C  484  1  0.21081500  0.59465000  0.21989300  1
  C  486  1  0.25159800  0.56840400  0.25961900  1
  C  487  1  0.27842800  0.56560400  0.25558900  1
  C  488  1  0.29620400  0.56414000  0.27092200  1
  C  489  1  0.28771900  0.56595700  0.28997000  1
  C  490  1  0.26102700  0.56842500  0.29381500  1
  C  491  1  0.24275700  0.56969800  0.27888700  1
  C  509  1  0.82910400  0.04137300  0.96013100  1
  C  510  1  0.80643200  0.03363500  0.96969600  1
  C  511  1  0.80740600  0.01631500  0.98528000  1
  C  512  1  0.83179600  0.00662200  0.99129300  1
  C  513  1  0.85490200  0.01429700  0.98191700  1
  C  514  1  0.85326000  0.03169300  0.96634900  1
  C  516  1  0.83268800  0.98883000  0.00669200  1
  C  517  1  0.82808100  0.96217000  0.00310900  1
  C  518  1  0.82544800  0.94510600  0.01877000  1
  C  519  1  0.82774400  0.95414300  0.03765400  1
  C  520  1  0.83269700  0.98060500  0.04102700  1
  C  521  1  0.83511100  0.99821800  0.02567200  1
  C  539  1  0.66805000  0.95008900  0.46028600  1
  C  540  1  0.69075500  0.95789600  0.46977800  1
  C  541  1  0.68982500  0.97523800  0.48535000  1
  C  542  1  0.66544600  0.98488600  0.49143000  1
  C  543  1  0.64230900  0.97715200  0.48212100  1
  C  544  1  0.64390700  0.95973400  0.46656300  1
  C  546  1  0.66459600  0.00259000  0.50688800  1
  C  547  1  0.66917900  0.02927500  0.50339600  1
  C  548  1  0.67194900  0.04621700  0.51911600  1
  C  549  1  0.66985300  0.03703800  0.53797800  1
  C  550  1  0.66486900  0.01055700  0.54125700  1
  C  551  1  0.66232500  0.99305900  0.52583900  1
  C  569  1  0.70161700  0.57705800  0.28572800  1
  C  570  1  0.70826800  0.55418200  0.27599000  1
  C  571  1  0.72517800  0.55459700  0.26014600  1
  C  572  1  0.73531600  0.57868700  0.25383400  1
  C  573  1  0.72907400  0.60194400  0.26362200  1
  C  574  1  0.71208200  0.60085100  0.27947100  1
  C  576  1  0.75342400  0.57883000  0.23859300  1
  C  577  1  0.77996600  0.57427000  0.24274100  1
  C  578  1  0.79760900  0.57111400  0.22748100  1
  C  579  1  0.78932200  0.57279600  0.20838000  1
  C  580  1  0.76296500  0.57763700  0.20443800  1
  C  581  1  0.74479300  0.58062600  0.21929800  1
  C  599  1  0.79511800  0.41463600  0.78575700  1
  C  600  1  0.78849200  0.43750000  0.77599400  1
  C  601  1  0.77167700  0.43705600  0.76009500  1
  C  602  1  0.76160100  0.41295300  0.75376100  1
  C  603  1  0.76780800  0.38970700  0.76357700  1
  C  604  1  0.78471500  0.39082900  0.77947400  1
  C  606  1  0.74354700  0.41277400  0.73848600  1
  C  607  1  0.71698200  0.41727900  0.74259100  1
  C  608  1  0.69937000  0.42035700  0.72730400  1
  C  609  1  0.70770600  0.41865600  0.70821500  1
  C  610  1  0.73408600  0.41387900  0.70431400  1
  C  611  1  0.75222600  0.41097100  0.71920400  1
  C  629  1  0.16526400  0.95436400  0.03624500  1
  C  630  1  0.18888500  0.96168100  0.02777300  1
  C  631  1  0.18966000  0.97915800  0.01223700  1
  C  632  1  0.16607700  0.98935500  0.00505900  1
  C  633  1  0.14205600  0.98211400  0.01331800  1
  C  634  1  0.14195700  0.96462000  0.02886200  1
  C  636  1  0.16652500  0.00650800  0.98922200  1
  C  637  1  0.16994000  0.03346500  0.99227400  1
  C  638  1  0.17079100  0.05021400  0.97630100  1
  C  639  1  0.16776000  0.04059800  0.95761800  1
  C  640  1  0.16465700  0.01373500  0.95477900  1
  C  641  1  0.16397900  0.99645600  0.97043400  1
  C  659  1  0.33186200  0.03707800  0.53625400  1
  C  660  1  0.30814400  0.02978300  0.52791800  1
  C  661  1  0.30718500  0.01226000  0.51241700  1
  C  662  1  0.33067800  0.00199300  0.50513300  1
  C  663  1  0.35479200  0.00920800  0.51325600  1
  C  664  1  0.35507600  0.02674700  0.52877200  1
  C  666  1  0.33004700  0.98483600  0.48930500  1
  C  667  1  0.32662500  0.95788200  0.49237600  1
  C  668  1  0.32560800  0.94113100  0.47640900  1
  C  669  1  0.32846800  0.95074500  0.45771300  1
  C  670  1  0.33158100  0.97760400  0.45485400  1
  C  671  1  0.33242600  0.99488200  0.47050500  1
  C  689  1  0.79449400  0.91629500  0.21099700  1
  C  690  1  0.78771200  0.94095800  0.21796400  1
  C  691  1  0.77078600  0.94384700  0.23370300  1
  C  692  1  0.76076400  0.92135900  0.24268600  1
  C  693  1  0.76778300  0.89632500  0.23611900  1
  C  694  1  0.78469500  0.89410900  0.22032400  1
  C  696  1  0.74347800  0.92381500  0.25833500  1
  C  697  1  0.71645500  0.92587500  0.25491200  1
  C  698  1  0.69934600  0.92692100  0.27067000  1
  C  699  1  0.70875000  0.92540200  0.28950500  1
  C  700  1  0.73567600  0.92400900  0.29272000  1
  C  701  1  0.75328000  0.92308700  0.27727600  1
  C  719  1  0.70105500  0.07566700  0.71181900  1
  C  720  1  0.70701000  0.05085900  0.71890800  1
  C  721  1  0.72351800  0.04755500  0.73484100  1
  C  722  1  0.73375100  0.06979800  0.74405400  1
  C  723  1  0.72799700  0.09497700  0.73708500  1
  C  724  1  0.71148000  0.09759500  0.72109600  1
  C  726  1  0.75128300  0.06690000  0.75951300  1
  C  727  1  0.77823600  0.06513400  0.75562500  1
  C  728  1  0.79584600  0.06371600  0.77105800  1
  C  729  1  0.78700800  0.06454900  0.79005500  1
  C  730  1  0.76018700  0.06555800  0.79375100  1
  C  731  1  0.74209600  0.06684300  0.77871600  1
  C  749  1  0.32450400  0.54276000  0.46149600  1
  C  750  1  0.30042000  0.53523000  0.46911000  1
  C  751  1  0.29874800  0.51755400  0.48448800  1
  C  752  1  0.32188700  0.50737200  0.49242900  1
  C  753  1  0.34637200  0.51503400  0.48517000  1
  C  754  1  0.34737000  0.53272100  0.46975300  1
  C  756  1  0.32045700  0.48945200  0.50778900  1
  C  757  1  0.31717300  0.46265300  0.50393100  1
  C  758  1  0.31524000  0.44512100  0.51940000  1
  C  759  1  0.31703800  0.45383300  0.53840600  1
  C  760  1  0.32004100  0.48053500  0.54204200  1
  C  761  1  0.32182100  0.49856100  0.52689900  1
  C  779  1  0.17327600  0.44899800  0.96139000  1
  C  780  1  0.19723400  0.45658200  0.96919000  1
  C  781  1  0.19864500  0.47420400  0.98461700  1
  C  782  1  0.17536800  0.48427000  0.99242200  1
  C  783  1  0.15100500  0.47653000  0.98498800  1
  C  784  1  0.15027000  0.45889900  0.96952600  1
  C  786  1  0.17655000  0.50217600  0.00780100  1
  C  787  1  0.17981600  0.52898600  0.00397700  1
  C  788  1  0.18163500  0.54649700  0.01946800  1
  C  789  1  0.17974600  0.53775600  0.03846000  1
  C  790  1  0.17672200  0.51104900  0.04206400  1
  C  791  1  0.17505800  0.49304000  0.02690000  1
  C  809  1  0.20708900  0.07829400  0.78548800  1
  C  810  1  0.21348100  0.05495900  0.77623800  1
  C  811  1  0.23003500  0.05459900  0.76016900  1
  C  812  1  0.23998800  0.07836900  0.75311300  1
  C  813  1  0.23410100  0.10206300  0.76244100  1
  C  814  1  0.21750400  0.10174000  0.77851400  1
  C  816  1  0.25739900  0.07813800  0.73744600  1
  C  817  1  0.28425700  0.07471800  0.74102800  1
  C  818  1  0.30157100  0.07369900  0.72541100  1
  C  819  1  0.29261300  0.07655000  0.70655300  1
  C  820  1  0.26588600  0.07971200  0.70314900  1
  C  821  1  0.24804200  0.08052400  0.71836800  1
  C  839  1  0.29005700  0.91283700  0.28543600  1
  C  840  1  0.28363100  0.93617100  0.27619600  1
  C  841  1  0.26705400  0.93652200  0.26014100  1
  C  842  1  0.25710800  0.91274600  0.25309100  1
  C  843  1  0.26302800  0.88905300  0.26241000  1
  C  844  1  0.27965200  0.88938400  0.27846800  1
  C  846  1  0.23966700  0.91296500  0.23744200  1
  C  847  1  0.21280800  0.91634900  0.24105100  1
  C  848  1  0.19546200  0.91732300  0.22545100  1
  C  849  1  0.20438700  0.91445400  0.20658700  1
  C  850  1  0.23111600  0.91134300  0.20315500  1
  C  851  1  0.24899100  0.91058000  0.21835600  1
  C  869  1  0.66647100  0.44988500  0.53610500  1
  C  870  1  0.69134200  0.45617500  0.52928500  1
  C  871  1  0.69474900  0.47290800  0.51349200  1
  C  872  1  0.67256700  0.48325500  0.50429700  1
  C  873  1  0.64732700  0.47678200  0.51075000  1
  C  874  1  0.64458900  0.46006300  0.52661800  1
  C  876  1  0.67553900  0.50035900  0.48858300  1
  C  877  1  0.67792400  0.52737800  0.49189900  1
  C  878  1  0.67931100  0.54435100  0.47607500  1
  C  879  1  0.67776100  0.53484400  0.45726600  1
  C  880  1  0.67612000  0.50790600  0.45416100  1
  C  881  1  0.67488600  0.49042800  0.46967600  1
  C  899  1  0.82997300  0.54089400  0.03622100  1
  C  900  1  0.80514700  0.53452900  0.02935100  1
  C  901  1  0.80185200  0.51781900  0.01353000  1
  C  902  1  0.82410200  0.50758100  0.00435800  1
  C  903  1  0.84929800  0.51414600  0.01085300  1
  C  904  1  0.85192100  0.53083800  0.02674700  1
  C  906  1  0.82124600  0.49046100  0.98864200  1
  C  907  1  0.81897000  0.46343200  0.99195800  1
  C  908  1  0.81772200  0.44645000  0.97613300  1
  C  909  1  0.81930700  0.45596000  0.95733000  1
  C  910  1  0.82082900  0.48290400  0.95422000  1
  C  911  1  0.82193400  0.50039200  0.96973500  1
  C  929  1  0.21517600  0.30961000  0.89904900  1
  C  930  1  0.23832200  0.30063100  0.90737400  1
  C  931  1  0.24375600  0.27374900  0.90838400  1
  C  932  1  0.22583600  0.25586600  0.90045000  1
  C  933  1  0.20288000  0.26489800  0.89141100  1
  C  934  1  0.19803300  0.29175200  0.89061900  1
  C  936  1  0.22828100  0.22875200  0.90361400  1
  C  937  1  0.21713000  0.21820700  0.92047000  1
  C  938  1  0.21094100  0.19155900  0.92102900  1
  C  939  1  0.21500300  0.17557300  0.90494700  1
  C  940  1  0.22825200  0.18571500  0.88903300  1
  C  941  1  0.23469800  0.21231600  0.88803900  1
  C  959  1  0.28254100  0.68168200  0.39886900  1
  C  960  1  0.25930700  0.69042500  0.40720000  1
  C  961  1  0.25357300  0.71724300  0.40818800  1
  C  962  1  0.27129900  0.73530400  0.40023800  1
  C  963  1  0.29434100  0.72651700  0.39118700  1
  C  964  1  0.29947100  0.69971500  0.39040000  1
  C  966  1  0.26860200  0.76238400  0.40344100  1
  C  967  1  0.27966000  0.77293600  0.42033600  1
  C  968  1  0.28562500  0.79963400  0.42098700  1
  C  969  1  0.28148700  0.81566100  0.40494100  1
  C  970  1  0.26832100  0.80551300  0.38899400  1
  C  971  1  0.26207100  0.77887400  0.38792600  1
  C  989  1  0.93230100  0.95090600  0.14979100  1
  C  990  1  0.93953600  0.97542100  0.15682100  1
  C  991  1  0.96593900  0.98283800  0.15773200  1
  C  992  1  0.98515500  0.96550400  0.15088900  1
  C  993  1  0.97792700  0.94112900  0.14307600  1
  C  994  1  0.95149700  0.93428200  0.14243500  1
  C  996  1  0.01198400  0.97047300  0.15370400  1
  C  997  1  0.02354000  0.96165000  0.17094500  1
  C  998  1  0.05059000  0.95755700  0.17154300  1
  C  999  1  0.06598900  0.96121400  0.15509100  1
  C  1000  1  0.05473300  0.97242500  0.13874000  1
  C  1001  1  0.02772800  0.97683500  0.13773800  1
  C  1019  1  0.56465900  0.04125000  0.64971900  1
  C  1020  1  0.55766900  0.01659900  0.65662400  1
  C  1021  1  0.53134400  0.00891800  0.65752400  1
  C  1022  1  0.51194400  0.02612000  0.65078500  1
  C  1023  1  0.51892400  0.05064800  0.64310500  1
  C  1024  1  0.54528600  0.05775200  0.64246300  1
  C  1026  1  0.48517000  0.02089000  0.65363900  1
  C  1027  1  0.47357400  0.02942500  0.67093800  1
  C  1028  1  0.44649100  0.03328600  0.67156800  1
  C  1029  1  0.43111300  0.02965300  0.65510300  1
  C  1030  1  0.44243200  0.01868200  0.63868500  1
  C  1031  1  0.46948000  0.01454900  0.63763600  1
  C  1049  1  0.28139800  0.31220000  0.59996200  1
  C  1050  1  0.25777600  0.30322100  0.59240600  1
  C  1051  1  0.25255500  0.27631800  0.59113900  1
  C  1052  1  0.27117700  0.25837900  0.59807300  1
  C  1053  1  0.29462700  0.26740100  0.60640100  1
  C  1054  1  0.29927500  0.29428600  0.60743700  1
  C  1056  1  0.26881300  0.23136900  0.59436900  1
  C  1057  1  0.27815100  0.22172900  0.57664600  1
  C  1058  1  0.28377500  0.19505100  0.57485600  1
  C  1059  1  0.28100800  0.17804100  0.59052700  1
  C  1060  1  0.26968500  0.18747600  0.60746900  1
  C  1061  1  0.26374700  0.21406600  0.60969400  1
  C  1079  1  0.21552800  0.67925300  0.10003500  1
  C  1080  1  0.23924100  0.68809700  0.09254400  1
  C  1081  1  0.24460700  0.71496900  0.09124900  1
  C  1082  1  0.22601500  0.73301300  0.09807400  1
  C  1083  1  0.20245400  0.72414200  0.10631400  1
  C  1084  1  0.19767600  0.69728300  0.10739600  1
  C  1086  1  0.22857800  0.76000900  0.09438700  1
  C  1087  1  0.21938500  0.76969100  0.07662900  1
  C  1088  1  0.21391400  0.79639800  0.07480300  1
  C  1089  1  0.21663200  0.81339600  0.09048700  1
  C  1090  1  0.22782600  0.80392500  0.10746400  1
  C  1091  1  0.23363800  0.77731400  0.10971100  1
  C  1109  1  0.56786300  0.95114100  0.34861400  1
  C  1110  1  0.56030000  0.97583500  0.34215500  1
  C  1111  1  0.53381200  0.98298400  0.34156200  1
  C  1112  1  0.51487300  0.96521300  0.34822300  1
  C  1113  1  0.52245900  0.94063700  0.35549000  1
  C  1114  1  0.54896500  0.93404200  0.35578300  1
  C  1116  1  0.48798500  0.96986400  0.34543200  1
  C  1117  1  0.47673200  0.96159200  0.32794200  1
  C  1118  1  0.44969300  0.95760500  0.32698600  1
  C  1119  1  0.43381100  0.96125300  0.34319500  1
  C  1120  1  0.44500700  0.97097300  0.36008300  1
  C  1121  1  0.47199300  0.97536800  0.36143500  1
  C  1139  1  0.92905600  0.03959500  0.84850700  1
  C  1140  1  0.93662500  0.01487800  0.84209700  1
  C  1141  1  0.96311900  0.00775900  0.84147900  1
  C  1142  1  0.98206300  0.02557000  0.84807400  1
  C  1143  1  0.97446500  0.05018000  0.85527700  1
  C  1144  1  0.94795400  0.05674400  0.85560500  1
  C  1146  1  0.00895000  0.02098000  0.84519700  1
  C  1147  1  0.02010900  0.02919000  0.82766400  1
  C  1148  1  0.04713600  0.03322800  0.82664900  1
  C  1149  1  0.06309000  0.02965800  0.84282700  1
  C  1150  1  0.05198200  0.01994600  0.85975500  1
  C  1151  1  0.02499900  0.01555600  0.86118500  1
  C  1169  1  0.79229700  0.67744900  0.09822600  1
  C  1170  1  0.76738200  0.68432900  0.09181200  1
  C  1171  1  0.75926500  0.71054800  0.09172300  1
  C  1172  1  0.77627000  0.72988400  0.09883800  1
  C  1173  1  0.80108300  0.72295000  0.10602300  1
  C  1174  1  0.80864200  0.69670600  0.10582200  1
  C  1176  1  0.77063100  0.75667800  0.09660000  1
  C  1177  1  0.77847500  0.76894700  0.07938100  1
  C  1178  1  0.78138600  0.79614700  0.07904500  1
  C  1179  1  0.77697100  0.81119900  0.09556700  1
  C  1180  1  0.76781400  0.79893600  0.11221900  1
  C  1181  1  0.76448900  0.77175400  0.11296200  1
  C  1199  1  0.70442600  0.31359900  0.59813100  1
  C  1200  1  0.72940700  0.30691000  0.59174800  1
  C  1201  1  0.73774900  0.28075800  0.59169600  1
  C  1202  1  0.72087700  0.26130000  0.59880000  1
  C  1203  1  0.69598300  0.26803000  0.60593200  1
  C  1204  1  0.68821300  0.29421500  0.60570700  1
  C  1206  1  0.72679600  0.23455200  0.59666600  1
  C  1207  1  0.71908900  0.22211300  0.57947300  1
  C  1208  1  0.71647800  0.19487700  0.57919100  1
  C  1209  1  0.72097800  0.17995300  0.59576400  1
  C  1210  1  0.73001200  0.19238000  0.61238500  1
  C  1211  1  0.73307500  0.21959500  0.61305700  1
  C  1229  1  0.70481700  0.67589600  0.40001700  1
  C  1230  1  0.73033900  0.68239100  0.40526000  1
  C  1231  1  0.73868100  0.70853500  0.40551700  1
  C  1232  1  0.72118700  0.72824300  0.39975500  1
  C  1233  1  0.69563300  0.72179400  0.39386600  1
  C  1234  1  0.68786800  0.69560600  0.39390600  1
  C  1236  1  0.72771800  0.75490000  0.40141200  1
  C  1237  1  0.72162900  0.76773100  0.41879900  1
  C  1238  1  0.71918800  0.79498800  0.41889200  1
  C  1239  1  0.72214400  0.80946500  0.40192400  1
  C  1240  1  0.72966100  0.79668900  0.38505200  1
  C  1241  1  0.73266000  0.76946800  0.38458600  1
  C  1259  1  0.79262500  0.31502300  0.89990400  1
  C  1260  1  0.76697700  0.30864200  0.90488600  1
  C  1261  1  0.75853400  0.28253100  0.90512300  1
  C  1262  1  0.77606300  0.26273200  0.89959900  1
  C  1263  1  0.80177200  0.26905500  0.89400300  1
  C  1264  1  0.80963200  0.29521400  0.89405600  1
  C  1266  1  0.76936900  0.23610400  0.90118700  1
  C  1267  1  0.77507700  0.22318600  0.91860200  1
  C  1268  1  0.77741700  0.19591900  0.91864400  1
  C  1269  1  0.77472000  0.18154900  0.90160700  1
  C  1270  1  0.76755000  0.19441800  0.88468600  1
  C  1271  1  0.76468900  0.22165600  0.88426000  1
  C  1289  1  0.43194400  0.46365700  0.64641400  1
  C  1290  1  0.43957100  0.48781500  0.65386000  1
  C  1291  1  0.46610200  0.49475600  0.65480800  1
  C  1292  1  0.48504500  0.47732300  0.64765600  1
  C  1293  1  0.47736700  0.45332700  0.63943700  1
  C  1294  1  0.45081500  0.44696300  0.63871800  1
  C  1296  1  0.51192000  0.48144900  0.65103500  1
  C  1297  1  0.52252900  0.47286900  0.66866400  1
  C  1298  1  0.54955000  0.46899600  0.67014600  1
  C  1299  1  0.56600200  0.47271200  0.65425400  1
  C  1300  1  0.55548000  0.48329900  0.63740100  1
  C  1301  1  0.52852700  0.48754200  0.63549400  1
  C  1319  1  0.06530600  0.52734300  0.14630000  1
  C  1320  1  0.05754700  0.50329400  0.15386200  1
  C  1321  1  0.03099000  0.49643400  0.15472500  1
  C  1322  1  0.01216200  0.51386200  0.14740000  1
  C  1323  1  0.01997300  0.53773700  0.13906400  1
  C  1324  1  0.04655400  0.54400000  0.13840400  1
  C  1326  1  0.98526000  0.50992700  0.15079700  1
  C  1327  1  0.97474800  0.51869900  0.16841300  1
  C  1328  1  0.94774600  0.52265900  0.16995400  1
  C  1329  1  0.93120600  0.51889900  0.15411700  1
  C  1330  1  0.94162100  0.50816800  0.13727800  1
  C  1331  1  0.96854900  0.50379900  0.13532800  1
  C  1349  1  0.06780200  0.46178600  0.84924300  1
  C  1350  1  0.06004900  0.48643000  0.84280300  1
  C  1351  1  0.03350000  0.49339400  0.84232600  1
  C  1352  1  0.01472000  0.47547200  0.84902300  1
  C  1353  1  0.02250600  0.45088300  0.85614600  1
  C  1354  1  0.04905400  0.44449900  0.85636900  1
  C  1356  1  0.98775500  0.48010300  0.84663900  1
  C  1357  1  0.97604600  0.47198500  0.82926800  1
  C  1358  1  0.94901500  0.46778500  0.82872500  1
  C  1359  1  0.93365700  0.47099700  0.84524000  1
  C  1360  1  0.94525300  0.48042800  0.86205700  1
  C  1361  1  0.97220900  0.48517600  0.86296300  1
  C  1379  1  0.42918900  0.52846900  0.34922000  1
  C  1380  1  0.43707900  0.50387100  0.34277900  1
  C  1381  1  0.46367200  0.49707500  0.34227200  1
  C  1382  1  0.48235800  0.51511500  0.34894600  1
  C  1383  1  0.47443000  0.53967600  0.35604300  1
  C  1384  1  0.44784300  0.54588500  0.35630600  1
  C  1386  1  0.50935200  0.51067300  0.34652300  1
  C  1387  1  0.52100200  0.51884400  0.32915100  1
  C  1388  1  0.54800200  0.52323600  0.32861900  1
  C  1389  1  0.56336500  0.52013500  0.34514100  1
  C  1390  1  0.55183400  0.51064000  0.36196600  1
  C  1391  1  0.52490400  0.50573100  0.36286900  1
  N  465  1  0.27946600  0.41765000  0.78055000  1
  N  466  1  0.20733400  0.42668400  0.73535400  1
  N  467  1  0.26278600  0.46867500  0.74248600  1
  N  468  1  0.25885900  0.37376100  0.74323100  1
  N  477  1  0.19084700  0.42515000  0.80308300  1
  N  478  1  0.31123400  0.42033000  0.69618200  1
  N  495  1  0.21659200  0.57222800  0.28467200  1
  N  496  1  0.28703100  0.56444800  0.23635900  1
  N  497  1  0.23081500  0.52217100  0.24432200  1
  N  498  1  0.23872100  0.61690000  0.24332700  1
  N  507  1  0.30505400  0.56461400  0.30385500  1
  N  508  1  0.18530000  0.57084300  0.19667100  1
  N  525  1  0.83917000  0.02501000  0.02892700  1
  N  526  1  0.82570000  0.95318800  0.98403800  1
  N  527  1  0.78448200  0.00853000  0.99485700  1
  N  528  1  0.87902000  0.00433800  0.98820100  1
  N  537  1  0.82297800  0.93769200  0.05164300  1
  N  538  1  0.82577000  0.05714100  0.94547000  1
  N  555  1  0.65828200  0.96624600  0.52900300  1
  N  556  1  0.67141100  0.03839300  0.48435100  1
  N  557  1  0.71278200  0.98306300  0.49486600  1
  N  558  1  0.61820200  0.98705400  0.48847700  1
  N  567  1  0.67469700  0.05345100  0.55199100  1
  N  568  1  0.67133500  0.93420900  0.44568300  1
  N  585  1  0.71889200  0.58498500  0.21344500  1
  N  586  1  0.78834300  0.57258400  0.26200800  1
  N  587  1  0.73237700  0.53131800  0.25077200  1
  N  588  1  0.74026600  0.62566000  0.25762100  1
  N  597  1  0.80659000  0.56846000  0.19478100  1
  N  598  1  0.68605500  0.57420400  0.30056200  1
  N  615  1  0.77815300  0.40666000  0.71339300  1
  N  616  1  0.70854700  0.41897800  0.76184400  1
  N  617  1  0.76450100  0.46031900  0.75069100  1
  N  618  1  0.75667600  0.36597500  0.75755000  1
  N  627  1  0.69043700  0.42291600  0.69460100  1
  N  628  1  0.81060400  0.41750900  0.80063700  1
  N  645  1  0.16093400  0.96943200  0.96765400  1
  N  646  1  0.17233000  0.04313300  0.01115300  1
  N  647  1  0.21346700  0.98646500  0.00370700  1
  N  648  1  0.11868800  0.99240900  0.00586900  1
  N  657  1  0.16897800  0.05721400  0.94327100  1
  N  658  1  0.16660600  0.93757400  0.05053900  1
  N  675  1  0.33549000  0.02190200  0.46770600  1
  N  676  1  0.32440700  0.94822100  0.51126900  1
  N  677  1  0.28328500  0.00498000  0.50402000  1
  N  678  1  0.37806800  0.99885000  0.50570000  1
  N  687  1  0.32718700  0.93413100  0.44336500  1
  N  688  1  0.33069200  0.05391700  0.55052200  1
  N  705  1  0.78033100  0.92107400  0.28040300  1
  N  706  1  0.70704500  0.92630900  0.23588000  1
  N  707  1  0.76365600  0.96866900  0.24056200  1
  N  708  1  0.75768200  0.87405600  0.24534600  1
  N  717  1  0.69191100  0.92494900  0.30373700  1
  N  718  1  0.81001600  0.91551000  0.19592600  1
  N  735  1  0.71579200  0.06836900  0.78434200  1
  N  736  1  0.78714600  0.06532300  0.73645100  1
  N  737  1  0.73032700  0.02251500  0.74146700  1
  N  738  1  0.73915400  0.11700900  0.74597200  1
  N  747  1  0.80420200  0.06496000  0.80405000  1
  N  748  1  0.68587300  0.07678900  0.69657600  1
  N  765  1  0.32489500  0.52540400  0.53049600  1
  N  766  1  0.31607900  0.45390500  0.48474400  1
  N  767  1  0.27444700  0.50986700  0.49201500  1
  N  768  1  0.36929400  0.50476000  0.49335000  1
  N  777  1  0.31525900  0.43675400  0.55245700  1
  N  778  1  0.32390500  0.55880100  0.44669000  1
  N  795  1  0.17200200  0.46618700  0.03046400  1
  N  796  1  0.18103400  0.53776200  0.98480100  1
  N  797  1  0.22282000  0.48195500  0.99232500  1
  N  798  1  0.12794200  0.48667200  0.99304100  1
  N  807  1  0.18152000  0.55481400  0.05252800  1
  N  808  1  0.17411700  0.43301300  0.94655400  1
  N  825  1  0.22175100  0.08359200  0.71304700  1
  N  826  1  0.29333700  0.07235800  0.76008100  1
  N  827  1  0.23696800  0.03094200  0.75122900  1
  N  828  1  0.24509900  0.12551200  0.75569400  1
  N  837  1  0.30970700  0.07504900  0.69255900  1
  N  838  1  0.19107900  0.07644200  0.80017400  1
  N  855  1  0.27527400  0.90754600  0.21300900  1
  N  856  1  0.20376300  0.91871200  0.26011200  1
  N  857  1  0.26008200  0.96017600  0.25121100  1
  N  858  1  0.25203000  0.86559800  0.25567200  1
  N  867  1  0.18727300  0.91589600  0.19260200  1
  N  868  1  0.30603800  0.91470600  0.30013900  1
  N  885  1  0.67260600  0.46338000  0.46665300  1
  N  886  1  0.67831500  0.53693300  0.51089300  1
  N  887  1  0.71978900  0.47951000  0.50677500  1
  N  888  1  0.62537300  0.48720900  0.50131400  1
  N  897  1  0.67741600  0.55168500  0.44302700  1
  N  898  1  0.66527400  0.43438300  0.55116300  1
  N  915  1  0.82411100  0.52744800  0.96671100  1
  N  916  1  0.81854700  0.45388500  0.01095200  1
  N  917  1  0.77685900  0.51112800  0.00676600  1
  N  918  1  0.87132100  0.50383000  0.00143800  1
  N  927  1  0.81975000  0.43913300  0.94308300  1
  N  928  1  0.83107200  0.55634800  0.05131100  1
  N  945  1  0.24592800  0.22309900  0.87135000  1
  N  946  1  0.21049700  0.23479400  0.93586900  1
  N  947  1  0.26634700  0.26430300  0.91750400  1
  N  948  1  0.18448800  0.24705000  0.88406400  1
  N  957  1  0.20449900  0.15221800  0.90321800  1
  N  958  1  0.20875400  0.33443500  0.89925600  1
  N  975  1  0.25094900  0.76808300  0.37120000  1
  N  976  1  0.28644400  0.75632000  0.43568600  1
  N  977  1  0.23088500  0.72645300  0.41730900  1
  N  978  1  0.31253600  0.74455700  0.38382800  1
  N  987  1  0.29188400  0.83907100  0.40327400  1
  N  988  1  0.28921500  0.65692600  0.39912500  1
  N  1005  1  0.01593200  0.98579500  0.12067800  1
  N  1006  1  0.00766500  0.95506000  0.18676100  1
  N  1007  1  0.97360100  0.00691800  0.16560300  1
  N  1008  1  0.99716800  0.92352900  0.13665000  1
  N  1017  1  0.08972500  0.95158800  0.15334000  1
  N  1018  1  0.90769100  0.94362200  0.14975600  1
  N  1035  1  0.48132900  0.00587400  0.62051500  1
  N  1036  1  0.48942300  0.03602100  0.68676400  1
  N  1037  1  0.52393000  0.98469800  0.66529100  1
  N  1038  1  0.49949900  0.06813300  0.63681100  1
  N  1047  1  0.40734600  0.03921200  0.65336700  1
  N  1048  1  0.58921400  0.04872700  0.64974400  1
  N  1065  1  0.25428200  0.22392100  0.62726900  1
  N  1066  1  0.28361800  0.23916700  0.56150700  1
  N  1067  1  0.22942800  0.26692800  0.58274400  1
  N  1068  1  0.31363600  0.24954100  0.61280800  1
  N  1077  1  0.29142100  0.15449100  0.59125300  1
  N  1078  1  0.28744600  0.33710800  0.60008200  1
  N  1095  1  0.24294100  0.76741700  0.12732000  1
  N  1096  1  0.21390700  0.75226900  0.06148200  1
  N  1097  1  0.26784400  0.72421700  0.08294100  1
  N  1098  1  0.18348900  0.74212000  0.11261500  1
  N  1107  1  0.20625600  0.83696300  0.09119600  1
  N  1108  1  0.20941600  0.65435900  0.10022800  1
  N  1125  1  0.48352400  0.98354400  0.37880400  1
  N  1126  1  0.49288700  0.95535800  0.31219300  1
  N  1127  1  0.52580900  0.00724100  0.33418200  1
  N  1128  1  0.50349700  0.92260800  0.36171000  1
  N  1137  1  0.41027900  0.95106300  0.34448400  1
  N  1138  1  0.59254800  0.94425000  0.34859700  1
  N  1155  1  0.01355400  0.00743500  0.87860100  1
  N  1156  1  0.00386800  0.03534400  0.81194800  1
  N  1157  1  0.97112900  0.98348500  0.83413300  1
  N  1158  1  0.99342800  0.06826600  0.86140800  1
  N  1167  1  0.08663100  0.03985900  0.84413000  1
  N  1168  1  0.90437100  0.04648400  0.84852700  1
  N  1185  1  0.75678300  0.75920700  0.13006500  1
  N  1186  1  0.78543700  0.75369700  0.06331100  1
  N  1187  1  0.73477900  0.71792700  0.08440100  1
  N  1188  1  0.81839200  0.74232900  0.11265000  1
  N  1197  1  0.78644900  0.83494800  0.09740000  1
  N  1198  1  0.80017000  0.65305900  0.09773900  1
  N  1215  1  0.74061400  0.23230500  0.63013300  1
  N  1216  1  0.71196800  0.23721800  0.56336500  1
  N  1217  1  0.76232200  0.27357300  0.58443400  1
  N  1218  1  0.67882700  0.24851800  0.61256200  1
  N  1227  1  0.71163700  0.15616200  0.59767900  1
  N  1228  1  0.69640400  0.33794300  0.59766200  1
  N  1245  1  0.73866200  0.75636600  0.36733800  1
  N  1246  1  0.71584600  0.75298400  0.43537000  1
  N  1247  1  0.76393200  0.71544100  0.41155400  1
  N  1248  1  0.67798600  0.74155600  0.38844800  1
  N  1257  1  0.71191000  0.83286200  0.40029600  1
  N  1258  1  0.69735300  0.65137000  0.39974900  1
  N  1275  1  0.75906300  0.23485500  0.86698000  1
  N  1276  1  0.78062500  0.23785200  0.93525100  1
  N  1277  1  0.73313700  0.27574700  0.91089200  1
  N  1278  1  0.81945000  0.24920000  0.88883300  1
  N  1287  1  0.78497000  0.15816300  0.89995100  1
  N  1288  1  0.80013300  0.33953700  0.89960500  1
  N  1305  1  0.51770100  0.49625400  0.61801800  1
  N  1306  1  0.50582000  0.46630300  0.68401300  1
  N  1307  1  0.47417100  0.51842400  0.66313300  1
  N  1308  1  0.49627700  0.43547500  0.63286000  1
  N  1317  1  0.58999300  0.46342600  0.65310400  1
  N  1318  1  0.40743300  0.45609200  0.64680100  1
  N  1335  1  0.97927400  0.49492100  0.11786500  1
  N  1336  1  0.99154500  0.52535400  0.18369200  1
  N  1337  1  0.02278600  0.47287800  0.16314800  1
  N  1338  1  0.00117200  0.55558900  0.13231800  1
  N  1347  1  0.90723000  0.52823600  0.15299200  1
  N  1348  1  0.08981500  0.53488500  0.14680400  1
  N  1365  1  0.98419300  0.49316600  0.88021500  1
  N  1366  1  0.99177500  0.46601300  0.81323200  1
  N  1367  1  0.02526800  0.51761800  0.83503000  1
  N  1368  1  0.00371800  0.43261800  0.86229500  1
  N  1377  1  0.91061500  0.45989100  0.84670400  1
  N  1378  1  0.09244400  0.45474700  0.84920700  1
  N  1395  1  0.51297200  0.49767800  0.38012600  1
  N  1396  1  0.50522500  0.52470100  0.31311900  1
  N  1397  1  0.47204300  0.47290200  0.33497600  1
  N  1398  1  0.49311500  0.55807600  0.36214200  1
  N  1407  1  0.58634300  0.53137100  0.34664600  1
  N  1408  1  0.40451600  0.53539100  0.34926200  1
  O  8  1  0.13695900  0.42868100  0.80914200  1
  O  15  1  0.17909200  0.37644500  0.94062800  1
  O  36  1  0.35922600  0.56076500  0.30930400  1
  O  43  1  0.31944000  0.61568500  0.44063200  1
  O  64  1  0.80623200  0.88850800  0.05717700  1
  O  71  1  0.86627200  0.91322600  0.18947300  1
  O  92  1  0.69254900  0.10190700  0.55776500  1
  O  99  1  0.62978700  0.07969200  0.68957900  1
  O  120  1  0.36767300  0.42594600  0.68912900  1
  O  127  1  0.31086600  0.38260700  0.55886100  1
  O  148  1  0.12936800  0.56500800  0.18925300  1
  O  155  1  0.18579800  0.60897200  0.05903900  1
  O  176  1  0.68983400  0.88133700  0.44170800  1
  O  183  1  0.63730300  0.92078100  0.30931900  1
  O  204  1  0.80702200  0.10992800  0.94137800  1
  O  211  1  0.85936000  0.06936600  0.80909000  1
  O  232  1  0.85816100  0.55631300  0.19013100  1
  O  239  1  0.83197300  0.61275600  0.05739800  1
  O  260  1  0.63900200  0.43519300  0.68997000  1
  O  267  1  0.66421400  0.37790700  0.55734700  1
  O  288  1  0.17135700  0.11048500  0.93743000  1
  O  295  1  0.13766100  0.06390200  0.80300800  1
  O  316  1  0.32480200  0.88084100  0.43748300  1
  O  323  1  0.35947400  0.92740100  0.30318600  1
  O  344  1  0.63378700  0.55635800  0.30484600  1
  O  351  1  0.67337300  0.60601400  0.43780200  1
  O  372  1  0.86286500  0.43535700  0.80490100  1
  O  379  1  0.82416400  0.38474400  0.93778600  1
  O  400  1  0.32400600  0.10983500  0.55324600  1
  O  407  1  0.36325700  0.07167700  0.68804100  1
  O  428  1  0.17373600  0.88180700  0.05322500  1
  O  435  1  0.13363200  0.91898600  0.18804100  1
  O  469  1  0.28445500  0.39691400  0.78921000  1
  O  470  1  0.27670900  0.35979200  0.74977900  1
  O  471  1  0.25129000  0.48231100  0.73026000  1
  O  472  1  0.19586700  0.44773400  0.73223600  1
  O  473  1  0.28818800  0.43630600  0.79012800  1
  O  474  1  0.24616000  0.36087500  0.73121100  1
  O  475  1  0.28177500  0.48118700  0.74889100  1
  O  476  1  0.19223800  0.40832800  0.73147000  1
  O  499  1  0.20291300  0.55349400  0.27929500  1
  O  500  1  0.22169300  0.63268100  0.24873000  1
  O  501  1  0.24285500  0.50851700  0.23239700  1
  O  502  1  0.30206800  0.58286400  0.23249900  1
  O  503  1  0.20658600  0.59296300  0.27891600  1
  O  504  1  0.25288500  0.62786700  0.23116200  1
  O  505  1  0.21141500  0.50970800  0.25008000  1
  O  506  1  0.29838200  0.54344600  0.23285500  1
  O  529  1  0.86001700  0.02897900  0.03772100  1
  O  530  1  0.89386100  0.02215500  0.99366300  1
  O  531  1  0.76915100  0.99706600  0.98375700  1
  O  532  1  0.80383000  0.94332000  0.98101400  1
  O  533  1  0.82086800  0.03485300  0.03828400  1
  O  534  1  0.89012400  0.99167000  0.97523300  1
  O  535  1  0.77299600  0.02753900  0.00220800  1
  O  536  1  0.84284300  0.93671900  0.98017400  1
  O  559  1  0.63750100  0.96221800  0.53787000  1
  O  560  1  0.60343800  0.96920400  0.49399500  1
  O  561  1  0.72804500  0.99453800  0.48372300  1
  O  562  1  0.69326100  0.04827100  0.48127100  1
  O  563  1  0.67665300  0.95632300  0.53824100  1
  O  564  1  0.60698900  0.99967500  0.47553600  1
  O  565  1  0.72432600  0.96407800  0.50219900  1
  O  566  1  0.65424900  0.05490000  0.48062900  1
  O  589  1  0.70384700  0.56720800  0.21859900  1
  O  590  1  0.72325400  0.64195700  0.25308300  1
  O  591  1  0.74423700  0.51631000  0.26188400  1
  O  592  1  0.80469000  0.58985900  0.26583700  1
  O  593  1  0.71036000  0.60628900  0.21937000  1
  O  594  1  0.75423900  0.63527100  0.27050700  1
  O  595  1  0.71302400  0.51962500  0.24412200  1
  O  596  1  0.79806400  0.55082300  0.26565100  1
  O  619  1  0.79314200  0.42447900  0.71855500  1
  O  620  1  0.77373000  0.34969800  0.75306500  1
  O  621  1  0.75256200  0.47532100  0.76176100  1
  O  622  1  0.69223500  0.40167000  0.76566900  1
  O  623  1  0.78671600  0.38538500  0.71935300  1
  O  624  1  0.74264700  0.35635500  0.77040000  1
  O  625  1  0.78388200  0.47203200  0.74409700  1
  O  626  1  0.69876100  0.44072300  0.76545000  1
  O  649  1  0.13989700  0.96430800  0.95944600  1
  O  650  1  0.10409400  0.97483000  0.99966800  1
  O  651  1  0.22807400  0.99758100  0.01550500  1
  O  652  1  0.19367300  0.05434600  0.01362000  1
  O  653  1  0.17922200  0.96015700  0.95797400  1
  O  654  1  0.10664100  0.00525800  0.01826800  1
  O  655  1  0.22513900  0.96722400  0.99686600  1
  O  656  1  0.15437400  0.05868900  0.01507100  1
  O  679  1  0.35646100  0.02698800  0.45939400  1
  O  680  1  0.39263400  0.01638300  0.49939500  1
  O  681  1  0.26876300  0.99392900  0.51591000  1
  O  682  1  0.30307800  0.93703100  0.51384700  1
  O  683  1  0.31713300  0.03120600  0.45811400  1
  O  684  1  0.39021100  0.98601200  0.51805300  1
  O  685  1  0.27158700  0.02422700  0.49720800  1
  O  686  1  0.34238500  0.93264700  0.51509400  1
  O  709  1  0.78596000  0.90072900  0.28935200  1
  O  710  1  0.77542000  0.86025300  0.25224200  1
  O  711  1  0.75213700  0.98160000  0.22793600  1
  O  712  1  0.69484400  0.94684200  0.23242700  1
  O  713  1  0.78882000  0.94021200  0.28956400  1
  O  714  1  0.74440600  0.86051900  0.23407900  1
  O  715  1  0.78307800  0.98122100  0.24617100  1
  O  716  1  0.69248300  0.90732100  0.23257600  1
  O  739  1  0.70271000  0.04963400  0.77821800  1
  O  740  1  0.72215600  0.13227900  0.75216800  1
  O  741  1  0.74242200  0.01002800  0.72889000  1
  O  742  1  0.80155200  0.08445600  0.73323300  1
  O  743  1  0.70530200  0.08916700  0.77921200  1
  O  744  1  0.75356900  0.12915300  0.73460400  1
  O  745  1  0.71070900  0.00969100  0.74631800  1
  O  746  1  0.79930000  0.04494000  0.73246600  1
  O  769  1  0.34544600  0.52992700  0.53952700  1
  O  770  1  0.38334100  0.52232900  0.50021500  1
  O  771  1  0.26079900  0.49882600  0.47956900  1
  O  772  1  0.29494100  0.44284100  0.48119100  1
  O  773  1  0.30610800  0.53437200  0.53980300  1
  O  774  1  0.38223700  0.49219900  0.48128400  1
  O  775  1  0.26212400  0.52888500  0.49857000  1
  O  776  1  0.33429300  0.43853600  0.48108600  1
  O  799  1  0.15139600  0.46162100  0.03941600  1
  O  800  1  0.11389500  0.46901200  0.99978100  1
  O  801  1  0.23658300  0.49309400  0.97999700  1
  O  802  1  0.20218200  0.54885700  0.98133500  1
  O  803  1  0.19073900  0.45723300  0.03983400  1
  O  804  1  0.11508400  0.49921800  0.98091900  1
  O  805  1  0.23513300  0.46296000  0.99892700  1
  O  806  1  0.16282400  0.55311300  0.98108800  1
  O  829  1  0.20803100  0.06469700  0.71804500  1
  O  830  1  0.22798300  0.14161200  0.75099800  1
  O  831  1  0.24911500  0.01641900  0.76252200  1
  O  832  1  0.30882400  0.09026900  0.76425000  1
  O  833  1  0.21209300  0.10407000  0.71957600  1
  O  834  1  0.25944400  0.13568400  0.76811400  1
  O  835  1  0.21742700  0.01897100  0.74517000  1
  O  836  1  0.30435800  0.05097200  0.76280900  1
  O  859  1  0.28897600  0.92646400  0.21798400  1
  O  860  1  0.26914600  0.84950700  0.25095800  1
  O  861  1  0.24794300  0.97468200  0.26252000  1
  O  862  1  0.18831200  0.90078300  0.26430900  1
  O  863  1  0.28497600  0.88708600  0.21953400  1
  O  864  1  0.23771200  0.85541800  0.26810500  1
  O  865  1  0.27960400  0.97216800  0.24514000  1
  O  866  1  0.19271600  0.94008500  0.26284200  1
  O  889  1  0.65229000  0.45789600  0.45762100  1
  O  890  1  0.61133600  0.46966400  0.49440200  1
  O  891  1  0.73276700  0.49090100  0.51943800  1
  O  892  1  0.69897800  0.54888800  0.51439000  1
  O  893  1  0.69174100  0.45461600  0.45763000  1
  O  894  1  0.61193800  0.50084100  0.51241300  1
  O  895  1  0.73205000  0.45981000  0.50135400  1
  O  896  1  0.65949300  0.55176600  0.51404800  1
  O  919  1  0.84443900  0.53301400  0.95772000  1
  O  920  1  0.88530200  0.52144800  0.99456800  1
  O  921  1  0.76388900  0.49965900  0.01939500  1
  O  922  1  0.79792500  0.44183500  0.01440900  1
  O  923  1  0.80497500  0.53612900  0.95764400  1
  O  924  1  0.88478100  0.49023100  0.01254100  1
  O  925  1  0.76453400  0.53079100  0.00134900  1
  O  926  1  0.83742400  0.43913900  0.01415200  1
  O  949  1  0.26771900  0.21322900  0.86804400  1
  O  950  1  0.16319600  0.24864800  0.89269600  1
  O  951  1  0.26703900  0.27078900  0.93481400  1
  O  952  1  0.18649200  0.23505200  0.93886600  1
  O  953  1  0.23178800  0.21986200  0.85691700  1
  O  954  1  0.18066700  0.25037800  0.86649100  1
  O  955  1  0.28646800  0.27252500  0.90942000  1
  O  956  1  0.22189000  0.22825200  0.95099000  1
  O  979  1  0.22908700  0.77780100  0.36790400  1
  O  980  1  0.33385100  0.74318900  0.39245000  1
  O  981  1  0.23027100  0.71997700  0.43462200  1
  O  982  1  0.31045100  0.75624200  0.43867600  1
  O  983  1  0.26508200  0.77150400  0.35678500  1
  O  984  1  0.31637900  0.74125800  0.36625500  1
  O  985  1  0.21085400  0.71800200  0.40923400  1
  O  986  1  0.27500300  0.76267800  0.45083100  1
  O  1009  1  0.02411600  0.00793100  0.11629000  1
  O  1010  1  0.99703900  0.90294500  0.14624200  1
  O  1011  1  0.96681300  0.00887700  0.18279600  1
  O  1012  1  0.00928000  0.93139800  0.19082600  1
  O  1013  1  0.02003100  0.97073800  0.10688300  1
  O  1014  1  0.99433400  0.91800300  0.11927800  1
  O  1015  1  0.96410500  0.02552700  0.15638800  1
  O  1016  1  0.01346300  0.96815000  0.20128500  1
  O  1039  1  0.47334500  0.98370800  0.61601100  1
  O  1040  1  0.49945800  0.08861100  0.64652400  1
  O  1041  1  0.53076400  0.98266000  0.68246900  1
  O  1042  1  0.48760600  0.05963200  0.69094100  1
  O  1043  1  0.47706500  0.02103200  0.60680700  1
  O  1044  1  0.50223000  0.07387200  0.61946800  1
  O  1045  1  0.53359300  0.96626100  0.65598100  1
  O  1046  1  0.48376400  0.02275600  0.70123300  1
  O  1069  1  0.23270400  0.21412400  0.63135600  1
  O  1070  1  0.33433400  0.25162600  0.60347400  1
  O  1071  1  0.22741700  0.27398000  0.56561000  1
  O  1072  1  0.30730300  0.23932600  0.55734700  1
  O  1073  1  0.26968300  0.21959100  0.64081700  1
  O  1074  1  0.31856100  0.25244900  0.63027400  1
  O  1075  1  0.20984200  0.27465400  0.59175300  1
  O  1076  1  0.27079100  0.23372500  0.54677900  1
  O  1099  1  0.26453600  0.77711700  0.13148400  1
  O  1100  1  0.16284700  0.74009900  0.10320800  1
  O  1101  1  0.26995200  0.71710700  0.06582700  1
  O  1102  1  0.19024500  0.75223200  0.05725000  1
  O  1103  1  0.22747000  0.77181600  0.14081200  1
  O  1104  1  0.17842900  0.73930100  0.13006800  1
  O  1105  1  0.28732200  0.71641800  0.09204600  1
  O  1106  1  0.22684600  0.75762400  0.04679100  1
  O  1129  1  0.47526100  0.00546500  0.38367200  1
  O  1130  1  0.50370800  0.90238300  0.35171200  1
  O  1131  1  0.53235700  0.00983500  0.31698300  1
  O  1132  1  0.49136800  0.93179700  0.30780300  1
  O  1133  1  0.47924000  0.96786700  0.39218400  1
  O  1134  1  0.50665500  0.91648300  0.37894100  1
  O  1135  1  0.53524900  0.02563700  0.34365900  1
  O  1136  1  0.48738300  0.96880500  0.29778300  1
  O  1159  1  0.02185500  0.98553900  0.88349500  1
  O  1160  1  0.99315400  0.08843800  0.85135400  1
  O  1161  1  0.96453500  0.98082400  0.81694900  1
  O  1162  1  0.00533000  0.05889400  0.80751300  1
  O  1163  1  0.01788600  0.02316700  0.89193700  1
  O  1164  1  0.99032600  0.07447600  0.87862900  1
  O  1165  1  0.96173800  0.96511200  0.84366000  1
  O  1166  1  0.00933200  0.02186100  0.79754800  1
  O  1189  1  0.73455100  0.76638600  0.13509600  1
  O  1190  1  0.83863500  0.74321400  0.10269300  1
  O  1191  1  0.73254800  0.71193900  0.06706400  1
  O  1192  1  0.80894200  0.75634900  0.05904900  1
  O  1193  1  0.77227700  0.76356700  0.14354800  1
  O  1194  1  0.82459600  0.73877600  0.12982600  1
  O  1195  1  0.71668100  0.70746800  0.09360200  1
  O  1196  1  0.77186300  0.75925100  0.04897700  1
  O  1219  1  0.76290300  0.22537000  0.63521400  1
  O  1220  1  0.65860900  0.24744900  0.60258700  1
  O  1221  1  0.76456900  0.27954800  0.56709600  1
  O  1222  1  0.68849600  0.23429700  0.55910300  1
  O  1223  1  0.72513000  0.22786300  0.64360700  1
  O  1224  1  0.67256700  0.25204600  0.62972900  1
  O  1225  1  0.78029800  0.28420300  0.59366200  1
  O  1226  1  0.72560800  0.23175700  0.54904500  1
  O  1249  1  0.76047900  0.76312200  0.36113500  1
  O  1250  1  0.65868500  0.74228000  0.39938000  1
  O  1251  1  0.76788400  0.70879500  0.42859100  1
  O  1252  1  0.69281800  0.75616500  0.44071400  1
  O  1253  1  0.72204900  0.76054900  0.35456900  1
  O  1254  1  0.67023100  0.73866600  0.37155100  1
  O  1255  1  0.78092100  0.70518700  0.40115200  1
  O  1256  1  0.73074800  0.75864100  0.44894300  1
  O  1279  1  0.73733500  0.22821900  0.86054000  1
  O  1280  1  0.83852300  0.24845400  0.89998000  1
  O  1281  1  0.72886700  0.28248100  0.92786800  1
  O  1282  1  0.80354300  0.23455200  0.94081200  1
  O  1283  1  0.77589800  0.23066000  0.85437300  1
  O  1284  1  0.82755800  0.25197800  0.87201600  1
  O  1285  1  0.71639800  0.28602000  0.90028000  1
  O  1286  1  0.76546400  0.23219900  0.94866900  1
  O  1309  1  0.52601600  0.51838700  0.61376500  1
  O  1310  1  0.49572500  0.41473100  0.64225400  1
  O  1311  1  0.46739600  0.51994100  0.68035400  1
  O  1312  1  0.50729400  0.44266300  0.68817400  1
  O  1313  1  0.52270500  0.48108300  0.60445500  1
  O  1314  1  0.49333400  0.43028900  0.61544000  1
  O  1315  1  0.46500500  0.53749300  0.65425500  1
  O  1316  1  0.51074300  0.47947300  0.69867500  1
  O  1339  1  0.97085400  0.47278900  0.11371400  1
  O  1340  1  0.00174100  0.57642600  0.14159700  1
  O  1341  1  0.02943800  0.47150700  0.18040200  1
  O  1342  1  0.99017300  0.54904100  0.18773000  1
  O  1343  1  0.97427800  0.51001200  0.10425300  1
  O  1344  1  0.00425600  0.56058300  0.11488000  1
  O  1345  1  0.03195700  0.45369400  0.15440900  1
  O  1346  1  0.98664300  0.51234500  0.19843600  1
  O  1369  1  0.97584100  0.51490400  0.88543100  1
  O  1370  1  0.00404100  0.41253200  0.85214700  1
  O  1371  1  0.03164800  0.52030300  0.81780400  1
  O  1372  1  0.99029300  0.44247900  0.80875600  1
  O  1373  1  0.98051000  0.47721800  0.89351700  1
  O  1374  1  0.00701000  0.42627300  0.87947000  1
  O  1375  1  0.03466400  0.53604700  0.84449300  1
  O  1376  1  0.98572900  0.47953500  0.79898100  1
  O  1399  1  0.52146500  0.47599700  0.38535400  1
  O  1400  1  0.49263100  0.57813900  0.35197200  1
  O  1401  1  0.46564900  0.47016600  0.31775800  1
  O  1402  1  0.50654800  0.54824400  0.30863800  1
  O  1403  1  0.51654900  0.51366200  0.39342100  1
  O  1404  1  0.48983000  0.56443600  0.37931500  1
  O  1405  1  0.46278500  0.45441600  0.34445400  1
  O  1406  1  0.51136600  0.51121900  0.29886900  1
