# generated using pymatgen
data_H9C16N2O
_symmetry_space_group_name_H-M   'P 1'
_cell_length_a   39.53920000
_cell_length_b   39.53920000
_cell_length_c   55.57800000
_cell_angle_alpha   90.00000000
_cell_angle_beta   90.00000000
_cell_angle_gamma   90.00000000
_symmetry_Int_Tables_number   1
_chemical_formula_structural   H9C16N2O
_chemical_formula_sum   'H288 C512 N64 O32'
_cell_volume   86887.77385378
_cell_formula_units_Z   32
loop_
 _symmetry_equiv_pos_site_id
 _symmetry_equiv_pos_as_xyz
  1  'x, y, z'
loop_
 _atom_site_type_symbol
 _atom_site_label
 _atom_site_symmetry_multiplicity
 _atom_site_fract_x
 _atom_site_fract_y
 _atom_site_fract_z
 _atom_site_occupancy
  H  7  1  0.12956800  0.42868800  0.87955200  1
  H  16  1  0.19527500  0.36191900  0.86585000  1
  H  17  1  0.11735100  0.43938700  0.79368900  1
  H  18  1  0.20783700  0.35230300  0.95173500  1
  H  19  1  0.21945800  0.42438400  0.83957900  1
  H  20  1  0.19301300  0.45304400  0.90441800  1
  H  27  1  0.36685600  0.53620200  0.37952800  1
  H  36  1  0.30122800  0.60298900  0.36582700  1
  H  37  1  0.37906900  0.52544800  0.29366500  1
  H  38  1  0.28853400  0.61257900  0.45170100  1
  H  39  1  0.27696800  0.54049900  0.33955000  1
  H  40  1  0.30333700  0.51183600  0.40436700  1
  H  47  1  0.80050100  0.86305200  0.12939700  1
  H  56  1  0.86854500  0.92860700  0.11574200  1
  H  57  1  0.78989700  0.85111400  0.04347400  1
  H  58  1  0.87818100  0.94132900  0.20163700  1
  H  59  1  0.80695800  0.95283400  0.08944000  1
  H  60  1  0.77743300  0.92619700  0.15433500  1
  H  67  1  0.69581600  0.10183600  0.62942400  1
  H  76  1  0.62772600  0.03636500  0.61579800  1
  H  77  1  0.70643800  0.11370400  0.54349600  1
  H  78  1  0.61814100  0.02356400  0.70168600  1
  H  79  1  0.68931300  0.01203700  0.58949400  1
  H  80  1  0.71887600  0.03863600  0.65435500  1
  H  87  1  0.36860400  0.42933800  0.61574900  1
  H  96  1  0.30193800  0.36357800  0.62938800  1
  H  97  1  0.37803200  0.44209500  0.70162900  1
  H  98  1  0.29135400  0.35135500  0.54351600  1
  H  99  1  0.27739300  0.42707500  0.65421800  1
  H  100  1  0.30609900  0.45348100  0.58942800  1
  H  107  1  0.12771700  0.53543600  0.11579100  1
  H  116  1  0.19429600  0.60127100  0.12945800  1
  H  117  1  0.11818700  0.52267300  0.20167200  1
  H  118  1  0.20497200  0.61343700  0.04359000  1
  H  119  1  0.21887100  0.53780500  0.15433000  1
  H  120  1  0.19027000  0.51132500  0.08953500  1
  H  127  1  0.69658400  0.86143300  0.36589100  1
  H  136  1  0.62960800  0.92801300  0.37959800  1
  H  137  1  0.70902800  0.85199200  0.45182500  1
  H  138  1  0.61734400  0.93861000  0.29371500  1
  H  139  1  0.69221400  0.95244400  0.40451500  1
  H  140  1  0.71946300  0.92357700  0.33959300  1
  H  147  1  0.79980100  0.10343100  0.86586500  1
  H  156  1  0.86680000  0.03696400  0.87955500  1
  H  157  1  0.78729400  0.11283500  0.95179400  1
  H  158  1  0.87902900  0.02627400  0.79368100  1
  H  159  1  0.80415900  0.01240800  0.90447500  1
  H  160  1  0.77690200  0.04119500  0.83958400  1
  H  167  1  0.86749100  0.53467400  0.11689700  1
  H  176  1  0.80187500  0.60283700  0.13055400  1
  H  177  1  0.87949400  0.52414800  0.20281800  1
  H  178  1  0.78911300  0.61240500  0.04466000  1
  H  179  1  0.77776700  0.54137900  0.15689500  1
  H  180  1  0.80443200  0.51171200  0.09198300  1
  H  187  1  0.62879600  0.43021100  0.61692400  1
  H  196  1  0.69433600  0.36202800  0.63059700  1
  H  197  1  0.61679000  0.44080000  0.70284500  1
  H  198  1  0.70720200  0.35245000  0.54471400  1
  H  199  1  0.71851400  0.42350900  0.65693500  1
  H  200  1  0.69192800  0.45316800  0.59203500  1
  H  207  1  0.19511100  0.10170700  0.86685200  1
  H  216  1  0.12712600  0.03491900  0.88046400  1
  H  217  1  0.20579400  0.11357300  0.95279100  1
  H  218  1  0.11770500  0.02236400  0.79451800  1
  H  219  1  0.18836100  0.01192300  0.90679300  1
  H  220  1  0.21813700  0.03942000  0.84184100  1
  H  227  1  0.30121500  0.86316600  0.36678000  1
  H  236  1  0.36925400  0.92992200  0.38041200  1
  H  237  1  0.29052200  0.85134200  0.45271900  1
  H  238  1  0.37874800  0.94247900  0.29446900  1
  H  239  1  0.30805100  0.95295000  0.40671000  1
  H  240  1  0.27826800  0.92544800  0.34175400  1
  H  247  1  0.62713400  0.53410000  0.38047800  1
  H  256  1  0.69379700  0.60113200  0.36681300  1
  H  257  1  0.61779400  0.52159600  0.29454500  1
  H  258  1  0.70446500  0.61335800  0.45270100  1
  H  259  1  0.71818100  0.53857200  0.34190300  1
  H  260  1  0.68922000  0.51126700  0.40680300  1
  H  267  1  0.86929100  0.43079000  0.88043200  1
  H  276  1  0.80274500  0.36367400  0.86678600  1
  H  277  1  0.87865900  0.44331200  0.79449300  1
  H  278  1  0.79198600  0.35157200  0.95267100  1
  H  279  1  0.77827300  0.42622000  0.84182500  1
  H  280  1  0.80713500  0.45361800  0.90669900  1
  H  287  1  0.30061300  0.10324700  0.63053200  1
  H  296  1  0.36749100  0.03534300  0.61689200  1
  H  297  1  0.28802300  0.11268100  0.54459300  1
  H  298  1  0.37943800  0.02480300  0.70283100  1
  H  299  1  0.30523600  0.01225200  0.59189100  1
  H  300  1  0.27773900  0.04202400  0.65686600  1
  H  307  1  0.19572700  0.86157000  0.13056400  1
  H  316  1  0.12882700  0.92943200  0.11688800  1
  H  317  1  0.20840300  0.85214600  0.04463000  1
  H  318  1  0.11679400  0.94001100  0.20281600  1
  H  319  1  0.19108900  0.95256100  0.09191600  1
  H  320  1  0.21855300  0.92281500  0.15689900  1
  H  333  1  0.29214500  0.39441100  0.69804500  1
  H  334  1  0.26629800  0.50143100  0.73568400  1
  H  335  1  0.30167000  0.50079600  0.70045700  1
  H  336  1  0.19732000  0.49785500  0.79450200  1
  H  337  1  0.20067600  0.39108500  0.79539200  1
  H  338  1  0.23568400  0.39219300  0.76046700  1
  H  351  1  0.20399100  0.57043600  0.19817000  1
  H  352  1  0.23012500  0.46339600  0.23567800  1
  H  353  1  0.19470600  0.46402800  0.20047900  1
  H  354  1  0.29905200  0.46698700  0.29451200  1
  H  355  1  0.29576000  0.57375900  0.29537100  1
  H  356  1  0.26069100  0.57265200  0.26048100  1
  H  369  1  0.83627400  0.02699500  0.94828900  1
  H  370  1  0.72929400  0.00039700  0.98571800  1
  H  371  1  0.72983700  0.03596300  0.95061200  1
  H  372  1  0.73286200  0.93109100  0.04420800  1
  H  373  1  0.83961700  0.93479300  0.04538900  1
  H  374  1  0.83856700  0.97006000  0.01058700  1
  H  387  1  0.66006100  0.93786600  0.44832200  1
  H  388  1  0.76702300  0.96440500  0.48579300  1
  H  389  1  0.76649200  0.92884500  0.45068600  1
  H  390  1  0.76344500  0.03373800  0.54427000  1
  H  391  1  0.65668700  0.03007200  0.54541800  1
  H  392  1  0.65774700  0.99480000  0.51061400  1
  H  405  1  0.70367600  0.57066400  0.29808400  1
  H  406  1  0.73020900  0.46368900  0.26062300  1
  H  407  1  0.69463400  0.46423300  0.29572500  1
  H  408  1  0.79950800  0.46724800  0.20213600  1
  H  409  1  0.79580500  0.57400500  0.20094700  1
  H  410  1  0.76058200  0.57295800  0.23577300  1
  H  423  1  0.79279800  0.39418600  0.79799600  1
  H  424  1  0.76611500  0.50119100  0.76064000  1
  H  425  1  0.80174100  0.50062400  0.79571300  1
  H  426  1  0.69685000  0.49767600  0.70214200  1
  H  427  1  0.70042600  0.39091300  0.70097700  1
  H  428  1  0.73569200  0.39193500  0.73577900  1
  H  441  1  0.15913000  0.93796800  0.04806400  1
  H  442  1  0.26615300  0.96453900  0.01068600  1
  H  443  1  0.26557900  0.92907300  0.04584400  1
  H  444  1  0.26256200  0.03371200  0.95208400  1
  H  445  1  0.15581500  0.02979300  0.95082300  1
  H  446  1  0.15688000  0.99462300  0.98566800  1
  H  459  1  0.33724500  0.02679800  0.54804800  1
  H  460  1  0.23023500  0.00037700  0.51059600  1
  H  461  1  0.23080800  0.03582400  0.54576500  1
  H  462  1  0.23381100  0.93118900  0.45200300  1
  H  463  1  0.34056100  0.93507200  0.45075600  1
  H  464  1  0.33949800  0.97022200  0.48561500  1
  H  477  1  0.79240100  0.89354600  0.19821900  1
  H  478  1  0.76621700  0.00063800  0.23563800  1
  H  479  1  0.80162400  0.99996400  0.20042700  1
  H  480  1  0.69732000  0.99703500  0.29452900  1
  H  481  1  0.70068200  0.89026600  0.29540100  1
  H  482  1  0.73572500  0.89138300  0.26050200  1
  H  495  1  0.70394200  0.07128500  0.69823500  1
  H  496  1  0.73011800  0.96418500  0.73564400  1
  H  497  1  0.69470000  0.96486700  0.70044100  1
  H  498  1  0.79900200  0.96775600  0.79453800  1
  H  499  1  0.79572900  0.07453000  0.79539100  1
  H  500  1  0.76066800  0.07342700  0.76049900  1
  H  513  1  0.33610200  0.52683100  0.44821500  1
  H  514  1  0.22906900  0.50049000  0.48566000  1
  H  515  1  0.22968100  0.53598400  0.45049700  1
  H  516  1  0.23270800  0.43142700  0.54442400  1
  H  517  1  0.33948100  0.43463900  0.54520700  1
  H  518  1  0.33834800  0.46984200  0.51038600  1
  H  531  1  0.16024300  0.43810700  0.94825500  1
  H  532  1  0.26727100  0.46427800  0.98576800  1
  H  533  1  0.26664900  0.42880700  0.95059400  1
  H  534  1  0.26365700  0.53334400  0.04453900  1
  H  535  1  0.15688100  0.53020800  0.04529200  1
  H  536  1  0.15800600  0.49503000  0.01045500  1
  H  549  1  0.20355900  0.07146700  0.79796200  1
  H  550  1  0.23020400  0.96439900  0.76067500  1
  H  551  1  0.19461000  0.96502200  0.79577200  1
  H  552  1  0.29942200  0.96791500  0.70210000  1
  H  553  1  0.29581800  0.07467500  0.70094000  1
  H  554  1  0.26058400  0.07364500  0.73575600  1
  H  567  1  0.29290700  0.89338600  0.29788100  1
  H  568  1  0.26610800  0.00045300  0.26065000  1
  H  569  1  0.30174100  0.99984200  0.29572300  1
  H  570  1  0.19690500  0.99693400  0.20208200  1
  H  571  1  0.20041400  0.89016900  0.20096300  1
  H  572  1  0.23569200  0.89119900  0.23575500  1
  H  585  1  0.65933500  0.43820500  0.54815400  1
  H  586  1  0.76641100  0.46446300  0.51073800  1
  H  587  1  0.76576100  0.42907000  0.54595400  1
  H  588  1  0.76276200  0.53339400  0.45186200  1
  H  589  1  0.65599700  0.52995700  0.45098800  1
  H  590  1  0.65713700  0.49487600  0.48586500  1
  H  603  1  0.83702700  0.52662400  0.04810600  1
  H  604  1  0.72995900  0.50047300  0.01063700  1
  H  605  1  0.73060600  0.53585500  0.04585900  1
  H  606  1  0.73361100  0.43150800  0.95177500  1
  H  607  1  0.84037800  0.43495600  0.95090400  1
  H  608  1  0.83923000  0.47003000  0.98578600  1
  H  621  1  0.16408600  0.15104900  0.89043900  1
  H  622  1  0.26753900  0.20722400  0.91339800  1
  H  623  1  0.26561000  0.14647000  0.91383700  1
  H  624  1  0.26547800  0.31533300  0.91189700  1
  H  625  1  0.16280300  0.31526400  0.89101900  1
  H  626  1  0.16358500  0.25513700  0.89062600  1
  H  639  1  0.33224200  0.81387800  0.39037900  1
  H  640  1  0.22882700  0.75764000  0.41334500  1
  H  641  1  0.23070700  0.81839500  0.41375900  1
  H  642  1  0.23093500  0.64953700  0.41181600  1
  H  643  1  0.33365900  0.64965900  0.39105400  1
  H  644  1  0.33284400  0.70978600  0.39066000  1
  H  657  1  0.07958500  0.89824000  0.14042800  1
  H  658  1  0.02299700  0.00146200  0.16339200  1
  H  659  1  0.08375800  0.99975400  0.16388100  1
  H  660  1  0.91489400  0.99901500  0.16175500  1
  H  661  1  0.91538200  0.89632000  0.14093200  1
  H  662  1  0.97550700  0.89733400  0.14057500  1
  H  675  1  0.41667500  0.06657700  0.64045000  1
  H  676  1  0.47332000  0.96339000  0.66342300  1
  H  677  1  0.41255700  0.96505500  0.66389300  1
  H  678  1  0.58142300  0.96590200  0.66178600  1
  H  679  1  0.58087400  0.06861700  0.64100900  1
  H  680  1  0.52075100  0.06756400  0.64064600  1
  H  693  1  0.33168100  0.15137100  0.60593100  1
  H  694  1  0.22838300  0.20843700  0.58376200  1
  H  695  1  0.22955400  0.14765700  0.58381600  1
  H  696  1  0.23240800  0.31648100  0.58292200  1
  H  697  1  0.33434100  0.31557300  0.60555600  1
  H  698  1  0.33276600  0.25547300  0.60656200  1
  H  711  1  0.16467400  0.81348600  0.10594500  1
  H  712  1  0.26796400  0.75635300  0.08385000  1
  H  713  1  0.26683400  0.81713300  0.08390500  1
  H  714  1  0.26389200  0.64831800  0.08302600  1
  H  715  1  0.16191800  0.64927400  0.10556600  1
  H  716  1  0.16351600  0.70937700  0.10656000  1
  H  729  1  0.41729000  0.89873800  0.35582800  1
  H  730  1  0.47464000  0.00192500  0.33377600  1
  H  731  1  0.41385700  0.00087800  0.33372600  1
  H  732  1  0.58269000  0.99764200  0.33309400  1
  H  733  1  0.58147100  0.89572800  0.35576700  1
  H  734  1  0.52137400  0.89745300  0.35669000  1
  H  747  1  0.07913400  0.06612200  0.85586600  1
  H  748  1  0.02174200  0.96296800  0.83378700  1
  H  749  1  0.08252700  0.96397700  0.83377100  1
  H  750  1  0.91370600  0.96728500  0.83309400  1
  H  751  1  0.91494500  0.06922900  0.85569700  1
  H  752  1  0.97504200  0.06748400  0.85663600  1
  H  765  1  0.83178400  0.81393600  0.10581300  1
  H  766  1  0.72867200  0.75711700  0.08289500  1
  H  767  1  0.73023500  0.81788200  0.08241200  1
  H  768  1  0.73136300  0.64902400  0.08453500  1
  H  769  1  0.83405300  0.64974000  0.10536900  1
  H  770  1  0.83291200  0.70986200  0.10570700  1
  H  783  1  0.66453000  0.15089800  0.60583000  1
  H  784  1  0.76763000  0.20776800  0.58294100  1
  H  785  1  0.76609300  0.14700200  0.58245600  1
  H  786  1  0.76490600  0.31585400  0.58460800  1
  H  787  1  0.66219100  0.31510200  0.60538000  1
  H  788  1  0.66335200  0.25498000  0.60571100  1
  H  801  1  0.66524600  0.81355700  0.39049300  1
  H  802  1  0.76820900  0.75586700  0.41262200  1
  H  803  1  0.76738000  0.81665500  0.41263500  1
  H  804  1  0.76357400  0.64784000  0.41330600  1
  H  805  1  0.66166000  0.64938300  0.39064200  1
  H  806  1  0.66358200  0.70947500  0.38970800  1
  H  819  1  0.83115000  0.15124900  0.89049000  1
  H  820  1  0.72820600  0.20902500  0.91255800  1
  H  821  1  0.72897800  0.14823600  0.91255600  1
  H  822  1  0.73291000  0.31703500  0.91324900  1
  H  823  1  0.83486000  0.31543600  0.89066900  1
  H  824  1  0.83290700  0.25534100  0.88973900  1
  H  837  1  0.57959700  0.39903200  0.64046100  1
  H  838  1  0.52296400  0.50223000  0.66342700  1
  H  839  1  0.58372700  0.50055900  0.66390000  1
  H  840  1  0.41488400  0.49977000  0.66178900  1
  H  841  1  0.41537700  0.39706900  0.64097200  1
  H  842  1  0.47550300  0.39808300  0.64063000  1
  H  855  1  0.91674000  0.56584100  0.14040800  1
  H  856  1  0.97328900  0.46263900  0.16346700  1
  H  857  1  0.91252900  0.46435900  0.16393400  1
  H  858  1  0.08137500  0.46500200  0.16178800  1
  H  859  1  0.08095700  0.56771700  0.14100900  1
  H  860  1  0.02083000  0.56674100  0.14065100  1
  H  873  1  0.91723100  0.39958800  0.85582500  1
  H  874  1  0.97466300  0.50272100  0.83375100  1
  H  875  1  0.91387800  0.50173500  0.83373100  1
  H  876  1  0.08268900  0.49838600  0.83307300  1
  H  877  1  0.08142700  0.39644700  0.85569000  1
  H  878  1  0.02132900  0.39820000  0.85661500  1
  H  891  1  0.57917400  0.56530500  0.35588000  1
  H  892  1  0.52177300  0.46218400  0.33373800  1
  H  893  1  0.58255600  0.46317800  0.33373700  1
  H  894  1  0.41374900  0.46646900  0.33309200  1
  H  895  1  0.41497000  0.56842300  0.35567000  1
  H  896  1  0.47507300  0.56669300  0.35660400  1
  C  1  1  0.17714600  0.42595200  0.86257400  1
  C  2  1  0.14235900  0.43355400  0.86387500  1
  C  3  1  0.12445400  0.44557500  0.84355400  1
  C  4  1  0.14226400  0.45073000  0.82166400  1
  C  5  1  0.17734100  0.44352700  0.82032300  1
  C  6  1  0.19436900  0.43082500  0.84073100  1
  C  9  1  0.19356000  0.41003300  0.88209100  1
  C  10  1  0.19917900  0.42786100  0.90359400  1
  C  11  1  0.21211400  0.41133600  0.92414300  1
  C  12  1  0.21892500  0.37613800  0.92323300  1
  C  13  1  0.21306500  0.35772300  0.90168800  1
  C  14  1  0.20078700  0.37514700  0.88123200  1
  C  21  1  0.31927800  0.53892600  0.36254700  1
  C  22  1  0.35405600  0.53127300  0.36386700  1
  C  23  1  0.37196500  0.51926700  0.34353900  1
  C  24  1  0.35416200  0.51412200  0.32164500  1
  C  25  1  0.31908800  0.52133100  0.32030700  1
  C  26  1  0.30205500  0.53405200  0.34070300  1
  C  29  1  0.30287900  0.55486900  0.38206000  1
  C  30  1  0.29717300  0.53701900  0.40354100  1
  C  31  1  0.28421900  0.55354900  0.42408500  1
  C  32  1  0.27745900  0.58875700  0.42319100  1
  C  33  1  0.28339200  0.60717200  0.40165700  1
  C  34  1  0.29570400  0.58976400  0.38120700  1
  C  41  1  0.80445400  0.91054400  0.11241400  1
  C  42  1  0.79603000  0.87594000  0.11370300  1
  C  43  1  0.78368500  0.85830700  0.09335400  1
  C  44  1  0.77903400  0.87623400  0.07145400  1
  C  45  1  0.78706700  0.91112800  0.07012300  1
  C  46  1  0.80006400  0.92786400  0.09055600  1
  C  49  1  0.82044900  0.92672300  0.13200800  1
  C  50  1  0.80261800  0.93234500  0.15351000  1
  C  51  1  0.81912900  0.94536000  0.17404000  1
  C  52  1  0.85430600  0.95226500  0.17312400  1
  C  53  1  0.87271800  0.94641200  0.15157800  1
  C  54  1  0.85531800  0.93405500  0.13113500  1
  C  61  1  0.69185000  0.05433900  0.61245300  1
  C  62  1  0.70033800  0.08892800  0.61374700  1
  C  63  1  0.71267200  0.10655200  0.59338600  1
  C  64  1  0.71729000  0.08860900  0.57148900  1
  C  65  1  0.70923800  0.05371900  0.57016800  1
  C  66  1  0.69622500  0.03700400  0.59060300  1
  C  69  1  0.67583000  0.03819000  0.63205100  1
  C  70  1  0.69368600  0.03249500  0.65353400  1
  C  71  1  0.67718100  0.01946900  0.67406600  1
  C  72  1  0.64199300  0.01262300  0.67316400  1
  C  73  1  0.62357100  0.01853600  0.65163200  1
  C  74  1  0.64095400  0.03091300  0.63119100  1
  C  81  1  0.32045900  0.42759100  0.63194500  1
  C  82  1  0.35534600  0.43480400  0.63112800  1
  C  83  1  0.37270800  0.44718600  0.65157700  1
  C  84  1  0.35423800  0.45309700  0.67309200  1
  C  85  1  0.31904300  0.44625600  0.67397000  1
  C  86  1  0.30257300  0.43325800  0.65341500  1
  C  89  1  0.30457900  0.41116400  0.61241900  1
  C  90  1  0.29970800  0.42838000  0.59057400  1
  C  91  1  0.28707700  0.41132100  0.57016100  1
  C  92  1  0.27994000  0.37623200  0.57149100  1
  C  93  1  0.28507400  0.35842400  0.59338600  1
  C  94  1  0.29700600  0.37636800  0.61372200  1
  C  101  1  0.17583700  0.53722600  0.13202500  1
  C  102  1  0.14096500  0.52993000  0.13116600  1
  C  103  1  0.12358800  0.51756700  0.15161500  1
  C  104  1  0.14202400  0.51169500  0.17314900  1
  C  105  1  0.17720700  0.51857100  0.17404600  1
  C  106  1  0.19370000  0.53159600  0.15351000  1
  C  109  1  0.19171500  0.55367300  0.11250400  1
  C  110  1  0.19665900  0.53642700  0.09067800  1
  C  111  1  0.20929800  0.55348100  0.07026300  1
  C  112  1  0.21639000  0.58858300  0.07157500  1
  C  113  1  0.21119500  0.60639800  0.09345800  1
  C  114  1  0.19923800  0.58847900  0.11379400  1
  C  121  1  0.69364800  0.90945700  0.38218200  1
  C  122  1  0.70163800  0.87473400  0.38132000  1
  C  123  1  0.71425500  0.85756100  0.40178100  1
  C  124  1  0.71966300  0.87608000  0.42334400  1
  C  125  1  0.71206800  0.91111600  0.42426200  1
  C  126  1  0.69882300  0.92737300  0.40370500  1
  C  129  1  0.67716300  0.92516300  0.36260100  1
  C  130  1  0.69436600  0.92998800  0.34074300  1
  C  131  1  0.67734000  0.94268400  0.32033600  1
  C  132  1  0.64227400  0.94993000  0.32168700  1
  C  133  1  0.62447600  0.94485200  0.34358900  1
  C  134  1  0.64239500  0.93286900  0.36391900  1
  C  141  1  0.80272000  0.05540300  0.88215200  1
  C  142  1  0.79468200  0.09011600  0.88127500  1
  C  143  1  0.78206900  0.10728900  0.90174000  1
  C  144  1  0.77667400  0.08876400  0.92330100  1
  C  145  1  0.78427500  0.05373200  0.92421500  1
  C  146  1  0.79754200  0.03747500  0.90366700  1
  C  149  1  0.81923200  0.03971900  0.86257000  1
  C  150  1  0.80200400  0.03480600  0.84073100  1
  C  151  1  0.81904300  0.02210800  0.82032700  1
  C  152  1  0.85412400  0.01493800  0.82166200  1
  C  153  1  0.87192900  0.02009200  0.84355200  1
  C  154  1  0.85401800  0.03209200  0.86387800  1
  C  161  1  0.82003100  0.53876900  0.13390300  1
  C  162  1  0.85461200  0.53025800  0.13260200  1
  C  163  1  0.87224800  0.51788600  0.15294300  1
  C  164  1  0.85432400  0.51331600  0.17485600  1
  C  165  1  0.81945000  0.52143700  0.17620600  1
  C  166  1  0.80272700  0.53444400  0.15577300  1
  C  169  1  0.80384800  0.55473800  0.11429800  1
  C  170  1  0.79824800  0.53689000  0.09280000  1
  C  171  1  0.78519000  0.55335900  0.07226600  1
  C  172  1  0.77823000  0.58852500  0.07318300  1
  C  173  1  0.78405400  0.60696400  0.09472100  1
  C  174  1  0.79645000  0.58959200  0.11516400  1
  C  181  1  0.67625500  0.42612900  0.63393800  1
  C  182  1  0.64168400  0.43469000  0.63261600  1
  C  183  1  0.62405100  0.44704700  0.65296400  1
  C  184  1  0.64196300  0.45161200  0.67487900  1
  C  185  1  0.67683200  0.44348600  0.67623200  1
  C  186  1  0.69356000  0.43045600  0.65580800  1
  C  189  1  0.69242600  0.41012700  0.61434100  1
  C  190  1  0.69810400  0.42798800  0.59285700  1
  C  191  1  0.71117500  0.41150500  0.57233100  1
  C  192  1  0.71808200  0.37633000  0.57323800  1
  C  193  1  0.71218900  0.35789800  0.59476800  1
  C  194  1  0.69976900  0.37526300  0.61520400  1
  C  201  1  0.19092000  0.05423000  0.88383400  1
  C  202  1  0.19949100  0.08880200  0.88255300  1
  C  203  1  0.21191500  0.10638100  0.90290100  1
  C  204  1  0.21651100  0.08842800  0.92479600  1
  C  205  1  0.20834500  0.05356600  0.92612400  1
  C  206  1  0.19526900  0.03689100  0.90569000  1
  C  209  1  0.17513500  0.03800600  0.86416300  1
  C  210  1  0.19305800  0.03284300  0.84264000  1
  C  211  1  0.17682100  0.01954400  0.82209600  1
  C  212  1  0.14180800  0.01186700  0.82301900  1
  C  213  1  0.12327500  0.01723000  0.84458100  1
  C  214  1  0.14043800  0.02988300  0.86503900  1
  C  221  1  0.30544100  0.91064000  0.38375800  1
  C  222  1  0.29678900  0.87608700  0.38246400  1
  C  223  1  0.28437100  0.85851700  0.40282100  1
  C  224  1  0.27982100  0.87647700  0.42471700  1
  C  225  1  0.28801800  0.91133100  0.42604300  1
  C  226  1  0.30111400  0.92799000  0.40561000  1
  C  229  1  0.32126100  0.92683700  0.36408700  1
  C  230  1  0.30334400  0.93202900  0.34256400  1
  C  231  1  0.31959700  0.94533500  0.32202300  1
  C  232  1  0.35461500  0.95298600  0.32295500  1
  C  233  1  0.37312800  0.94759800  0.34452100  1
  C  234  1  0.35596100  0.93493500  0.36497400  1
  C  241  1  0.67516800  0.53710700  0.36420900  1
  C  242  1  0.64045500  0.52907000  0.36505500  1
  C  243  1  0.62331300  0.51640400  0.34459500  1
  C  244  1  0.64186900  0.51102200  0.32304300  1
  C  245  1  0.67689500  0.51866700  0.32213700  1
  C  246  1  0.69311400  0.53194300  0.34269900  1
  C  249  1  0.69085100  0.55358000  0.38380900  1
  C  250  1  0.69565600  0.53635600  0.40566100  1
  C  251  1  0.70838800  0.55336200  0.42606500  1
  C  252  1  0.71570700  0.58841100  0.42472000  1
  C  253  1  0.71065100  0.60622600  0.40282100  1
  C  254  1  0.69861800  0.58833500  0.38249100  1
  C  261  1  0.82127300  0.42773500  0.86414300  1
  C  262  1  0.85596800  0.43585800  0.86501500  1
  C  263  1  0.87310800  0.44850900  0.84455000  1
  C  264  1  0.85456900  0.45385800  0.82299000  1
  C  265  1  0.81955600  0.44617500  0.82207600  1
  C  266  1  0.80333200  0.43287200  0.84262700  1
  C  269  1  0.80560500  0.41125800  0.88374400  1
  C  270  1  0.80071600  0.42852100  0.90557100  1
  C  271  1  0.78798500  0.41153300  0.92598400  1
  C  272  1  0.78072900  0.37646700  0.92467000  1
  C  273  1  0.78585800  0.35862400  0.90279100  1
  C  274  1  0.79790700  0.37648400  0.88245600  1
  C  281  1  0.30377900  0.05524600  0.61422000  1
  C  282  1  0.29564800  0.08994000  0.61509300  1
  C  283  1  0.28293200  0.10707300  0.59464700  1
  C  284  1  0.27756000  0.08854200  0.57308500  1
  C  285  1  0.28528400  0.05353800  0.57215500  1
  C  286  1  0.29862500  0.03732100  0.59269500  1
  C  289  1  0.32002400  0.03946700  0.63388800  1
  C  290  1  0.30271200  0.03513600  0.65575400  1
  C  291  1  0.31942200  0.02212300  0.67619200  1
  C  292  1  0.35429600  0.01400300  0.67485000  1
  C  293  1  0.37222800  0.01856200  0.65294000  1
  C  294  1  0.35459500  0.03090100  0.63258700  1
  C  301  1  0.19256000  0.90956800  0.11424800  1
  C  302  1  0.20075700  0.87488800  0.11514000  1
  C  303  1  0.21347800  0.85775100  0.09469300  1
  C  304  1  0.21883100  0.87628200  0.07313000  1
  C  305  1  0.21109300  0.91128000  0.07219700  1
  C  306  1  0.19771900  0.92749700  0.09272600  1
  C  309  1  0.17627800  0.92532700  0.13390800  1
  C  310  1  0.19358000  0.92970000  0.15577600  1
  C  311  1  0.17684700  0.94272200  0.17620100  1
  C  312  1  0.14196900  0.95081300  0.17485200  1
  C  313  1  0.12406100  0.94621500  0.15293900  1
  C  314  1  0.14169900  0.93386000  0.13259400  1
  C  321  1  0.19512300  0.44437400  0.79829100  1
  C  322  1  0.20667400  0.41396400  0.78786800  1
  C  323  1  0.22729400  0.41466900  0.76735300  1
  C  324  1  0.23696900  0.44606100  0.75719600  1
  C  326  1  0.20446700  0.47514300  0.78733400  1
  C  327  1  0.25876100  0.44803600  0.73689800  1
  C  328  1  0.27196300  0.47877000  0.72778100  1
  C  329  1  0.29292900  0.47840100  0.70729100  1
  C  330  1  0.30063800  0.44754600  0.69576300  1
  C  331  1  0.28742900  0.41748200  0.70566300  1
  C  339  1  0.30131400  0.52047100  0.29826900  1
  C  340  1  0.28977300  0.55088300  0.28784200  1
  C  341  1  0.26912300  0.55017800  0.26734200  1
  C  342  1  0.25938800  0.51878400  0.25721500  1
  C  344  1  0.29192300  0.48969900  0.28733500  1
  C  345  1  0.23753400  0.51680800  0.23695000  1
  C  346  1  0.22436900  0.48606400  0.22782000  1
  C  347  1  0.20335500  0.48643100  0.20735400  1
  C  348  1  0.19557800  0.51729100  0.19585500  1
  C  349  1  0.20874900  0.54736300  0.20577200  1
  C  357  1  0.78633100  0.92904000  0.04813500  1
  C  358  1  0.81675900  0.94075200  0.03782100  1
  C  359  1  0.81609100  0.96151400  0.01737400  1
  C  360  1  0.78471700  0.97117500  0.00718900  1
  C  362  1  0.75558900  0.93838000  0.03713600  1
  C  363  1  0.78272900  0.99312500  0.98698300  1
  C  364  1  0.75195500  0.00625100  0.97788200  1
  C  365  1  0.75226800  0.02735900  0.95747100  1
  C  366  1  0.78310900  0.03527400  0.94599200  1
  C  367  1  0.81321500  0.02214300  0.95588400  1
  C  375  1  0.70997100  0.03579400  0.54818700  1
  C  376  1  0.67954800  0.02408600  0.53786400  1
  C  377  1  0.68022100  0.00332400  0.51741900  1
  C  378  1  0.71160000  0.99365700  0.50724100  1
  C  380  1  0.74071800  0.02645000  0.53719500  1
  C  381  1  0.71359300  0.97171100  0.48703300  1
  C  382  1  0.74436700  0.95857000  0.47794500  1
  C  383  1  0.74406100  0.93747700  0.45752700  1
  C  384  1  0.71322600  0.92958100  0.44603300  1
  C  385  1  0.68311700  0.94271700  0.45591800  1
  C  393  1  0.80154900  0.52071800  0.19819700  1
  C  394  1  0.78983400  0.55114600  0.20850900  1
  C  395  1  0.76909500  0.55048100  0.22896700  1
  C  396  1  0.75946100  0.51910700  0.23916900  1
  C  398  1  0.79225600  0.48997900  0.20922000  1
  C  399  1  0.73753100  0.51712000  0.25938500  1
  C  400  1  0.72439500  0.48634500  0.26848000  1
  C  401  1  0.70330400  0.48665900  0.28889900  1
  C  402  1  0.69539100  0.51749600  0.30037800  1
  C  403  1  0.70853700  0.54760600  0.29049500  1
  C  411  1  0.69471800  0.44420500  0.69823000  1
  C  412  1  0.70639700  0.41376400  0.70854700  1
  C  413  1  0.72715400  0.41441600  0.72899700  1
  C  414  1  0.73686300  0.44578300  0.73917100  1
  C  416  1  0.70406800  0.47493900  0.70923400  1
  C  417  1  0.75884700  0.44775500  0.75935800  1
  C  418  1  0.77198500  0.47852500  0.76845900  1
  C  419  1  0.79313200  0.47819600  0.78885000  1
  C  420  1  0.80107300  0.44735100  0.80031000  1
  C  421  1  0.78792200  0.41724900  0.79041900  1
  C  429  1  0.20909500  0.03563200  0.94810200  1
  C  430  1  0.17867500  0.02388500  0.95840700  1
  C  431  1  0.17935200  0.00318500  0.97888400  1
  C  432  1  0.21072800  0.99362400  0.98911300  1
  C  434  1  0.23983800  0.02638300  0.95914100  1
  C  435  1  0.21271400  0.97176200  0.00936700  1
  C  436  1  0.24348600  0.95869900  0.01851700  1
  C  437  1  0.24315300  0.93765100  0.03895900  1
  C  438  1  0.21229900  0.92974300  0.05042400  1
  C  439  1  0.18219900  0.94282600  0.04049000  1
  C  447  1  0.28727900  0.92927000  0.44801900  1
  C  448  1  0.31770000  0.94100200  0.45833100  1
  C  449  1  0.31702400  0.96168600  0.47881600  1
  C  450  1  0.28564800  0.97124300  0.48904800  1
  C  452  1  0.25653500  0.93851100  0.45906100  1
  C  453  1  0.28366500  0.99308500  0.50931200  1
  C  454  1  0.25289700  0.00617700  0.51844800  1
  C  455  1  0.25323000  0.02720200  0.53890200  1
  C  456  1  0.28408000  0.03506300  0.55038900  1
  C  457  1  0.31417900  0.02195600  0.54046600  1
  C  465  1  0.69511500  0.94355200  0.29830200  1
  C  466  1  0.70668100  0.91314700  0.28788400  1
  C  467  1  0.72732600  0.91386000  0.26738300  1
  C  468  1  0.73701500  0.94525400  0.25723500  1
  C  470  1  0.70447300  0.97432600  0.28735700  1
  C  471  1  0.75883600  0.94722400  0.23695400  1
  C  472  1  0.77196800  0.97796100  0.22778800  1
  C  473  1  0.79295200  0.97757100  0.20730700  1
  C  474  1  0.80077000  0.94669000  0.19584900  1
  C  475  1  0.78762600  0.91662900  0.20579700  1
  C  483  1  0.80125300  0.02124000  0.79829800  1
  C  484  1  0.78971500  0.05165300  0.78787300  1
  C  485  1  0.76908500  0.05094900  0.76736500  1
  C  486  1  0.75934700  0.01955900  0.75723700  1
  C  488  1  0.79187000  0.99046700  0.78736100  1
  C  489  1  0.73750300  0.01759600  0.73696500  1
  C  490  1  0.72435400  0.98686300  0.72780600  1
  C  491  1  0.70334200  0.98726000  0.70733800  1
  C  492  1  0.69556500  0.01814000  0.69586600  1
  C  493  1  0.70870900  0.04820000  0.70581400  1
  C  501  1  0.28619200  0.42910600  0.54813100  1
  C  502  1  0.31659700  0.44066600  0.53770400  1
  C  503  1  0.31587600  0.46141000  0.51725200  1
  C  504  1  0.28447700  0.47120800  0.50716500  1
  C  506  1  0.25541200  0.43859500  0.53725200  1
  C  507  1  0.28248700  0.49313800  0.48694100  1
  C  508  1  0.25173700  0.50630000  0.47782100  1
  C  509  1  0.25209000  0.52735700  0.45737700  1
  C  510  1  0.28294900  0.53517500  0.44589100  1
  C  511  1  0.31303400  0.52204900  0.45581500  1
  C  519  1  0.21017100  0.53567100  0.04824200  1
  C  520  1  0.17976300  0.52414500  0.03780300  1
  C  521  1  0.18048100  0.50342200  0.01734100  1
  C  522  1  0.21187800  0.49361400  0.00725700  1
  C  524  1  0.24095200  0.52618600  0.03736300  1
  C  525  1  0.21386100  0.47170600  0.98701900  1
  C  526  1  0.24460400  0.45851200  0.97791100  1
  C  527  1  0.24424500  0.43747700  0.95745500  1
  C  528  1  0.21338700  0.42969200  0.94595400  1
  C  529  1  0.18331200  0.44286700  0.95586300  1
  C  537  1  0.30151300  0.02138700  0.69817800  1
  C  538  1  0.28982100  0.05181900  0.70849500  1
  C  539  1  0.26907500  0.05116100  0.72894700  1
  C  540  1  0.25940800  0.01979200  0.73914000  1
  C  542  1  0.29218600  0.99064900  0.70918900  1
  C  543  1  0.23747300  0.01783000  0.75935500  1
  C  544  1  0.22435900  0.98707300  0.76849300  1
  C  545  1  0.20325700  0.98743500  0.78890800  1
  C  546  1  0.19530100  0.01830400  0.80033300  1
  C  547  1  0.20843600  0.04838900  0.79041000  1
  C  555  1  0.19475000  0.94346100  0.19819200  1
  C  556  1  0.20640300  0.91302500  0.20852100  1
  C  557  1  0.22717000  0.91368000  0.22896500  1
  C  558  1  0.23690400  0.94505200  0.23912500  1
  C  560  1  0.20411400  0.97420000  0.20918400  1
  C  561  1  0.25889500  0.94701400  0.25931000  1
  C  562  1  0.27200800  0.97777600  0.26844300  1
  C  563  1  0.29315500  0.97742200  0.28883400  1
  C  564  1  0.30111600  0.94655600  0.30026100  1
  C  565  1  0.28801000  0.91646200  0.29033300  1
  C  573  1  0.70928100  0.53557000  0.44809300  1
  C  574  1  0.67888000  0.52397600  0.45850700  1
  C  575  1  0.67960900  0.50331800  0.47900300  1
  C  576  1  0.71100800  0.49362900  0.48914000  1
  C  578  1  0.74006000  0.52618900  0.45902000  1
  C  579  1  0.71299300  0.47179500  0.50941400  1
  C  580  1  0.74373800  0.45868100  0.51858000  1
  C  581  1  0.74336100  0.43768400  0.53905400  1
  C  582  1  0.71248800  0.42989000  0.55053100  1
  C  583  1  0.68241400  0.44298600  0.54057000  1
  C  591  1  0.78709500  0.42936400  0.94799600  1
  C  592  1  0.81749200  0.44094700  0.95841800  1
  C  593  1  0.81676100  0.46160200  0.97891100  1
  C  594  1  0.78536000  0.47127900  0.98905200  1
  C  596  1  0.75631200  0.43872400  0.95892700  1
  C  597  1  0.78337400  0.49309500  0.00933700  1
  C  598  1  0.75263300  0.50622700  0.01849200  1
  C  599  1  0.75300700  0.52720600  0.03897600  1
  C  600  1  0.78387700  0.53498500  0.05046300  1
  C  601  1  0.81394600  0.52185700  0.04051800  1
  C  609  1  0.21421400  0.32175900  0.90122900  1
  C  610  1  0.18494900  0.30313200  0.89512300  1
  C  611  1  0.18536700  0.26765300  0.89501800  1
  C  612  1  0.21532700  0.25001600  0.90112700  1
  C  614  1  0.24353300  0.30326100  0.90735100  1
  C  615  1  0.21674600  0.21398200  0.90146300  1
  C  616  1  0.24571000  0.19528600  0.90836500  1
  C  617  1  0.24453700  0.15964700  0.90869600  1
  C  618  1  0.21477700  0.14224100  0.90194600  1
  C  619  1  0.18662500  0.16195400  0.89504300  1
  C  627  1  0.28222600  0.64313900  0.40120000  1
  C  628  1  0.31149300  0.66177800  0.39512400  1
  C  629  1  0.31105600  0.69726000  0.39501600  1
  C  630  1  0.28107000  0.71488000  0.40109100  1
  C  632  1  0.25288400  0.66161900  0.40729300  1
  C  633  1  0.27962600  0.75091300  0.40141800  1
  C  634  1  0.25064300  0.76959000  0.40830200  1
  C  635  1  0.25179200  0.80523100  0.40862600  1
  C  636  1  0.28153600  0.82265400  0.40186600  1
  C  637  1  0.30971000  0.80296000  0.39498200  1
  C  645  1  0.90867800  0.94772000  0.15109500  1
  C  646  1  0.92742400  0.91852600  0.14500700  1
  C  647  1  0.96290200  0.91908000  0.14493200  1
  C  648  1  0.98041700  0.94911100  0.15104300  1
  C  650  1  0.92705400  0.97711600  0.15721300  1
  C  651  1  0.01644300  0.95066400  0.15141400  1
  C  652  1  0.03502300  0.97968800  0.15834700  1
  C  653  1  0.07066700  0.97864100  0.15871700  1
  C  654  1  0.08819300  0.94895900  0.15194900  1
  C  655  1  0.06859100  0.92073900  0.14502400  1
  C  663  1  0.58760900  0.01721700  0.65116300  1
  C  664  1  0.56884800  0.04640600  0.64508700  1
  C  665  1  0.53336700  0.04582700  0.64500200  1
  C  666  1  0.51587300  0.01577800  0.65109600  1
  C  668  1  0.56924800  0.98780200  0.65725900  1
  C  669  1  0.47984500  0.01419900  0.65145600  1
  C  670  1  0.46128100  0.98515900  0.65838000  1
  C  671  1  0.42563800  0.98618000  0.65873800  1
  C  672  1  0.40809600  0.01585500  0.65197600  1
  C  673  1  0.42768200  0.04408900  0.64505800  1
  C  681  1  0.28338400  0.32250000  0.59438700  1
  C  682  1  0.31217900  0.30364000  0.60122000  1
  C  683  1  0.31130600  0.26816900  0.60166300  1
  C  684  1  0.28135100  0.25078100  0.59518400  1
  C  686  1  0.25403100  0.30424000  0.58799200  1
  C  687  1  0.27952000  0.21476200  0.59505600  1
  C  688  1  0.25019900  0.19631200  0.58858900  1
  C  689  1  0.25092300  0.16065500  0.58855200  1
  C  690  1  0.28061000  0.14299500  0.59512600  1
  C  691  1  0.30917900  0.16247600  0.60147900  1
  C  699  1  0.21289500  0.64232400  0.09445000  1
  C  700  1  0.18409500  0.66119900  0.10124900  1
  C  701  1  0.18498400  0.69667000  0.10169100  1
  C  702  1  0.21495700  0.71404300  0.09523600  1
  C  704  1  0.24226600  0.66057200  0.08807400  1
  C  705  1  0.21680700  0.75006000  0.09510700  1
  C  706  1  0.24615100  0.76849300  0.08866500  1
  C  707  1  0.24544800  0.80414800  0.08862100  1
  C  708  1  0.21576500  0.82182700  0.09517600  1
  C  709  1  0.18717400  0.80236500  0.10151000  1
  C  717  1  0.58855500  0.94666800  0.34460800  1
  C  718  1  0.56960700  0.91793200  0.35143600  1
  C  719  1  0.53413600  0.91888800  0.35181600  1
  C  720  1  0.51683900  0.94887100  0.34528600  1
  C  722  1  0.57038100  0.97606100  0.33817400  1
  C  723  1  0.48082400  0.95077500  0.34508100  1
  C  724  1  0.46245500  0.98013300  0.33857800  1
  C  725  1  0.42679700  0.97947800  0.33847000  1
  C  726  1  0.40905200  0.94982900  0.34502200  1
  C  727  1  0.42845600  0.92122000  0.35140000  1
  C  735  1  0.90785100  0.01828400  0.84455600  1
  C  736  1  0.92680600  0.04702300  0.85136800  1
  C  737  1  0.96227500  0.04605300  0.85176600  1
  C  738  1  0.97956700  0.01605100  0.84526500  1
  C  740  1  0.92601700  0.98887100  0.83815400  1
  C  741  1  0.01558000  0.01412600  0.84508100  1
  C  742  1  0.03393700  0.98475400  0.83859500  1
  C  743  1  0.06959600  0.98538600  0.83850800  1
  C  744  1  0.08734900  0.01502700  0.84505800  1
  C  745  1  0.06795800  0.04365100  0.85142700  1
  C  753  1  0.78267600  0.64292100  0.09518800  1
  C  754  1  0.81182900  0.66173000  0.10127000  1
  C  755  1  0.81120000  0.69720900  0.10133900  1
  C  756  1  0.78113100  0.71465500  0.09522100  1
  C  758  1  0.75324000  0.66123200  0.08906600  1
  C  759  1  0.77950000  0.75067800  0.09484200  1
  C  760  1  0.75042700  0.76919100  0.08791700  1
  C  761  1  0.75138800  0.80483900  0.08755900  1
  C  762  1  0.78103700  0.82243200  0.09431100  1
  C  763  1  0.80931300  0.80289400  0.10121300  1
  C  771  1  0.71358300  0.32193900  0.59524100  1
  C  772  1  0.68442900  0.30311900  0.60131200  1
  C  773  1  0.68506900  0.26764100  0.60137100  1
  C  774  1  0.71514800  0.25020500  0.59526500  1
  C  776  1  0.74302900  0.30363800  0.58912900  1
  C  777  1  0.71679200  0.21418200  0.59487800  1
  C  778  1  0.74587700  0.19568300  0.58796300  1
  C  779  1  0.74493100  0.16003600  0.58759400  1
  C  780  1  0.71528700  0.14243000  0.59433800  1
  C  781  1  0.68699900  0.16195400  0.60123600  1
  C  789  1  0.71257600  0.64213700  0.40180100  1
  C  790  1  0.68390300  0.66117900  0.39496900  1
  C  791  1  0.68497600  0.69664500  0.39458300  1
  C  792  1  0.71501700  0.71384800  0.40110700  1
  C  794  1  0.74203300  0.66021800  0.40822800  1
  C  795  1  0.71704800  0.74985300  0.40129900  1
  C  796  1  0.74646400  0.76812600  0.40780400  1
  C  797  1  0.74593800  0.80378700  0.40789000  1
  C  798  1  0.71636000  0.82162700  0.40131500  1
  C  799  1  0.68768200  0.80231700  0.39493900  1
  C  807  1  0.78393600  0.32270700  0.90180000  1
  C  808  1  0.81261300  0.30365300  0.89499900  1
  C  809  1  0.81151800  0.26818400  0.89460400  1
  C  810  1  0.78145200  0.25100200  0.90109800  1
  C  812  1  0.75445600  0.30464700  0.90819800  1
  C  813  1  0.77939300  0.21499600  0.90127600  1
  C  814  1  0.74994700  0.19674900  0.90775200  1
  C  815  1  0.75044000  0.16108800  0.90782900  1
  C  816  1  0.78001300  0.14322500  0.90128000  1
  C  817  1  0.80871900  0.16250900  0.89492700  1
  C  825  1  0.40867000  0.44846400  0.65115200  1
  C  826  1  0.42741600  0.41926500  0.64507400  1
  C  827  1  0.46289700  0.41982100  0.64499800  1
  C  828  1  0.48040700  0.44985500  0.65110500  1
  C  830  1  0.42704400  0.47786200  0.65726900  1
  C  831  1  0.51643400  0.45142000  0.65146500  1
  C  832  1  0.53500000  0.48045700  0.65839000  1
  C  833  1  0.57064400  0.47943500  0.65874100  1
  C  834  1  0.58818100  0.44975600  0.65198300  1
  C  835  1  0.56859200  0.42152300  0.64506700  1
  C  843  1  0.08762600  0.51630500  0.15115800  1
  C  844  1  0.06890100  0.54551700  0.14507900  1
  C  845  1  0.03342100  0.54498600  0.14499900  1
  C  846  1  0.01588900  0.51496000  0.15109700  1
  C  848  1  0.06923000  0.48691400  0.15726400  1
  C  849  1  0.97986300  0.51342200  0.15145900  1
  C  850  1  0.96127300  0.48441000  0.15840400  1
  C  851  1  0.92563000  0.48546500  0.15876200  1
  C  852  1  0.90811400  0.51514200  0.15197200  1
  C  853  1  0.92772500  0.54334900  0.14503300  1
  C  861  1  0.08853200  0.44739400  0.84455000  1
  C  862  1  0.06957100  0.41866000  0.85136600  1
  C  863  1  0.03410100  0.41962900  0.85175100  1
  C  864  1  0.01681700  0.44963200  0.84524100  1
  C  866  1  0.07037200  0.47680300  0.83813600  1
  C  867  1  0.98080600  0.45156200  0.84504700  1
  C  868  1  0.96246000  0.48093800  0.83855700  1
  C  869  1  0.92680100  0.48032100  0.83846500  1
  C  870  1  0.90903700  0.45068700  0.84501800  1
  C  871  1  0.92841700  0.42205700  0.85139100  1
  C  879  1  0.40788900  0.51747100  0.34454100  1
  C  880  1  0.42683700  0.54622000  0.35134400  1
  C  881  1  0.46230800  0.54525600  0.35174000  1
  C  882  1  0.47960200  0.51525600  0.34524300  1
  C  884  1  0.42605800  0.48806000  0.33814500  1
  C  885  1  0.51561500  0.51333100  0.34505800  1
  C  886  1  0.53397100  0.48396500  0.33855700  1
  C  887  1  0.56962900  0.48458700  0.33847600  1
  C  888  1  0.58738400  0.51421900  0.34504500  1
  C  889  1  0.56799600  0.54284100  0.35142300  1
  N  325  1  0.22490800  0.47478400  0.76771100  1
  N  332  1  0.26742100  0.41896600  0.72533200  1
  N  343  1  0.27144400  0.49006000  0.26773400  1
  N  350  1  0.22879700  0.54588100  0.22541800  1
  N  361  1  0.75598400  0.95894700  0.01758800  1
  N  368  1  0.81178900  0.00199100  0.97548400  1
  N  379  1  0.74032800  0.00588100  0.51764800  1
  N  386  1  0.68453800  0.96285900  0.47552300  1
  N  397  1  0.77169000  0.49037400  0.22877100  1
  N  404  1  0.72867900  0.54617700  0.27089200  1
  N  415  1  0.72466300  0.47452600  0.72876900  1
  N  422  1  0.76773900  0.41868800  0.77083800  1
  N  433  1  0.23945500  0.00587600  0.97872100  1
  N  440  1  0.18364500  0.96291000  0.02085800  1
  N  451  1  0.25692000  0.95900500  0.47865000  1
  N  458  1  0.31273300  0.00189400  0.52082300  1
  N  469  1  0.72493900  0.97397500  0.26774600  1
  N  476  1  0.76759000  0.91813700  0.22544700  1
  N  487  1  0.77139600  0.99083100  0.76775400  1
  N  494  1  0.72875200  0.04668600  0.72546200  1
  N  505  1  0.25575900  0.45913200  0.51768200  1
  N  512  1  0.31155900  0.50194200  0.47543300  1
  N  523  1  0.24060000  0.50566500  0.01778300  1
  N  530  1  0.18479100  0.46295100  0.97549100  1
  N  541  1  0.27161400  0.99105200  0.72873700  1
  N  548  1  0.22859100  0.04691400  0.77081600  1
  N  559  1  0.22471500  0.97379300  0.22871500  1
  N  566  1  0.26782300  0.91793200  0.27075500  1
  N  577  1  0.73972100  0.50572300  0.47862800  1
  N  584  1  0.68391100  0.46302100  0.52092000  1
  N  595  1  0.75664600  0.45918200  0.97854200  1
  N  602  1  0.81245200  0.50183600  0.02085900  1
  N  613  1  0.24298600  0.26889000  0.90701400  1
  N  620  1  0.18870000  0.19608600  0.89518000  1
  N  631  1  0.25341200  0.69599000  0.40695300  1
  N  638  1  0.30766200  0.76882700  0.39513300  1
  N  649  1  0.96142800  0.97670100  0.15690400  1
  N  656  1  0.03445300  0.92268900  0.14513700  1
  N  667  1  0.53487700  0.98819400  0.65694400  1
  N  674  1  0.46182000  0.04216200  0.64517600  1
  N  685  1  0.25413300  0.26987600  0.58866300  1
  N  692  1  0.30750200  0.19662500  0.60112300  1
  N  703  1  0.24217700  0.69493500  0.08874100  1
  N  710  1  0.18882700  0.76821700  0.10115400  1
  N  721  1  0.53601700  0.97604100  0.33878700  1
  N  728  1  0.46260700  0.92282600  0.35110500  1
  N  739  1  0.96038100  0.98888200  0.83878000  1
  N  746  1  0.03380600  0.04206400  0.85111600  1
  N  757  1  0.75358100  0.69560600  0.08936700  1
  N  764  1  0.80743900  0.76875100  0.10110600  1
  N  775  1  0.74269800  0.26926400  0.58942600  1
  N  782  1  0.68885800  0.19609700  0.60113200  1
  N  793  1  0.74212400  0.69458100  0.40760800  1
  N  800  1  0.68916600  0.76816100  0.39525200  1
  N  811  1  0.75434500  0.27028400  0.90757400  1
  N  818  1  0.80726400  0.19666700  0.89524500  1
  N  829  1  0.46141800  0.47744800  0.65696000  1
  N  836  1  0.53445400  0.42345300  0.64518400  1
  N  847  1  0.03485800  0.48735400  0.15694900  1
  N  854  1  0.96186300  0.54139200  0.14515400  1
  N  865  1  0.03600800  0.47679800  0.83875300  1
  N  872  1  0.96257100  0.42363000  0.85108000  1
  N  883  1  0.46042100  0.48807700  0.33876700  1
  N  890  1  0.53384500  0.54126000  0.35110900  1
  O  8  1  0.12538700  0.46031800  0.80135900  1
  O  15  1  0.22871500  0.35968800  0.94366700  1
  O  28  1  0.37104400  0.50451900  0.30134800  1
  O  35  1  0.26765800  0.60519400  0.44362900  1
  O  48  1  0.76912500  0.85959700  0.05112400  1
  O  55  1  0.87073300  0.96216100  0.19354100  1
  O  68  1  0.72720700  0.10523700  0.55115900  1
  O  75  1  0.62558100  0.00272900  0.69358800  1
  O  88  1  0.37062700  0.46294800  0.69353700  1
  O  95  1  0.27039700  0.35933400  0.55118400  1
  O  108  1  0.12560500  0.50182800  0.19357800  1
  O  115  1  0.22592900  0.60546200  0.05126000  1
  O  128  1  0.72975900  0.85986000  0.44379600  1
  O  135  1  0.62538900  0.95953600  0.30138900  1
  O  148  1  0.76656600  0.10498700  0.94375000  1
  O  155  1  0.87099900  0.00534300  0.80135700  1
  O  168  1  0.87095600  0.50338900  0.19518200  1
  O  175  1  0.76829500  0.60492600  0.05276400  1
  O  188  1  0.62531800  0.46155400  0.69519600  1
  O  195  1  0.72801600  0.35993400  0.55281600  1
  O  208  1  0.22651900  0.10501500  0.94512100  1
  O  215  1  0.12561200  0.00167400  0.80258100  1
  O  228  1  0.26980000  0.85989300  0.44504100  1
  O  235  1  0.37081900  0.96317000  0.30251700  1
  O  248  1  0.62568800  0.50088500  0.30258600  1
  O  255  1  0.72536800  0.60527000  0.44501600  1
  O  268  1  0.87076300  0.46401500  0.80254100  1
  O  275  1  0.77108000  0.35963800  0.94498100  1
  O  288  1  0.26734500  0.10472500  0.55264700  1
  O  295  1  0.37092000  0.00405100  0.69517300  1
  O  308  1  0.22907200  0.86009300  0.05270000  1
  O  315  1  0.12533400  0.96076300  0.19517100  1
