# generated using pymatgen
data_H23(C21N4)2
_symmetry_space_group_name_H-M   'P 1'
_cell_length_a   34.18870000
_cell_length_b   34.18870000
_cell_length_c   68.37720000
_cell_angle_alpha   90.00000000
_cell_angle_beta   90.00000000
_cell_angle_gamma   90.00000000
_symmetry_Int_Tables_number   1
_chemical_formula_structural   H23(C21N4)2
_chemical_formula_sum   'H276 C504 N96'
_cell_volume   79923.86683366
_cell_formula_units_Z   12
loop_
 _symmetry_equiv_pos_site_id
 _symmetry_equiv_pos_as_xyz
  1  'x, y, z'
loop_
 _atom_site_type_symbol
 _atom_site_label
 _atom_site_symmetry_multiplicity
 _atom_site_fract_x
 _atom_site_fract_y
 _atom_site_fract_z
 _atom_site_occupancy
  H  73  1  0.96121100  0.07626700  0.84306100  1
  H  74  1  0.96563000  0.07151600  0.87758300  1
  H  75  1  0.03501200  0.97781300  0.83723900  1
  H  76  1  0.03881600  0.97271100  0.87198000  1
  H  77  1  0.06532600  0.00882600  0.90165400  1
  H  78  1  0.06786400  0.00632500  0.93662500  1
  H  79  1  0.94328400  0.02744100  0.90437400  1
  H  80  1  0.94609100  0.02550400  0.93925300  1
  H  81  1  0.00918600  0.09419800  0.94839900  1
  H  82  1  0.00889900  0.14635600  0.97469600  1
  H  83  1  0.00903600  0.03965300  0.00151500  1
  H  84  1  0.00775200  0.99101600  0.02561500  1
  H  85  1  0.00662300  0.93655900  0.94746300  1
  H  86  1  0.00654100  0.88378700  0.97363100  1
  H  87  1  0.06754100  0.86123900  0.01572500  1
  H  88  1  0.06459600  0.79132700  0.01453800  1
  H  89  1  0.94476400  0.86691600  0.01039500  1
  H  90  1  0.94157000  0.79716800  0.00955100  1
  H  91  1  0.00857400  0.88430500  0.05242400  1
  H  92  1  0.00853900  0.93644500  0.07872300  1
  H  93  1  0.00672000  0.14687800  0.05349700  1
  H  94  1  0.00582500  0.09410900  0.07966000  1
  H  95  1  0.94520800  0.00388300  0.08804400  1
  H  96  1  0.94291200  0.00109500  0.12296000  1
  H  97  1  0.06666900  0.02506200  0.09038200  1
  H  98  1  0.06463500  0.02182400  0.12530900  1
  H  99  1  0.03834800  0.05647900  0.15533200  1
  H  100  1  0.03923900  0.04744000  0.18997000  1
  H  101  1  0.96769500  0.94749800  0.18377300  1
  H  102  1  0.96742600  0.95610900  0.14927800  1
  H  103  1  0.06836700  0.16903000  0.01111700  1
  H  104  1  0.06590500  0.23896700  0.01214100  1
  H  105  1  0.96105000  0.28863100  0.03929000  1
  H  106  1  0.95519400  0.35784400  0.04017000  1
  H  107  1  0.03771200  0.36738200  0.99446900  1
  H  108  1  0.04288800  0.29776000  0.99326600  1
  H  109  1  0.94291500  0.23394200  0.01759800  1
  H  110  1  0.94565300  0.16420900  0.01696400  1
  H  111  1  0.96010200  0.74338100  0.98697300  1
  H  112  1  0.95571500  0.67433500  0.98454000  1
  H  113  1  0.04108900  0.73196200  0.03321300  1
  H  114  1  0.03732300  0.66253000  0.03055800  1
  H  119  1  0.96363200  0.41968300  0.02130500  1
  H  120  1  0.97473800  0.05081200  0.81110200  1
  H  121  1  0.97230800  0.61021400  0.99615900  1
  H  122  1  0.00290300  0.96162600  0.21480700  1
  H  195  1  0.95048800  0.96220800  0.34317300  1
  H  196  1  0.95597500  0.96587900  0.37768000  1
  H  197  1  0.04826200  0.03684700  0.33720100  1
  H  198  1  0.05413500  0.03988000  0.37193400  1
  H  199  1  0.01852000  0.06570500  0.40179800  1
  H  200  1  0.02138300  0.06797300  0.43675800  1
  H  201  1  0.00028800  0.94359100  0.40431600  1
  H  202  1  0.00255800  0.94613500  0.43919900  1
  H  203  1  0.93380100  0.00915900  0.44845200  1
  H  204  1  0.88164900  0.00893100  0.47475200  1
  H  205  1  0.98836600  0.00891900  0.50156000  1
  H  206  1  0.03701700  0.00880200  0.52564900  1
  H  207  1  0.09144600  0.00661400  0.44750600  1
  H  208  1  0.14423500  0.00664100  0.47367200  1
  H  209  1  0.16687000  0.06764400  0.51583700  1
  H  210  1  0.23677900  0.06461600  0.51472000  1
  H  211  1  0.16105800  0.94488900  0.51042300  1
  H  212  1  0.23080900  0.94161000  0.50965400  1
  H  213  1  0.14372000  0.00859200  0.55247500  1
  H  214  1  0.09156000  0.00910400  0.57876600  1
  H  215  1  0.88114300  0.00717300  0.55355300  1
  H  216  1  0.93393000  0.00692500  0.57971100  1
  H  217  1  0.02299200  0.94616500  0.58792500  1
  H  218  1  0.02519500  0.94346500  0.62280500  1
  H  219  1  0.00368700  0.06792800  0.59049800  1
  H  220  1  0.00643300  0.06549400  0.62546600  1
  H  221  1  0.97055900  0.03893000  0.65523700  1
  H  222  1  0.97610400  0.03536200  0.68996700  1
  H  223  1  0.07481200  0.96195100  0.68395600  1
  H  224  1  0.06960800  0.96613300  0.64944000  1
  H  225  1  0.85894000  0.06842300  0.51123200  1
  H  226  1  0.78901000  0.06590600  0.51231400  1
  H  227  1  0.73945900  0.96097400  0.53943600  1
  H  228  1  0.67024900  0.95508000  0.54032900  1
  H  229  1  0.66062500  0.03767100  0.49466300  1
  H  230  1  0.73023300  0.04288900  0.49344900  1
  H  231  1  0.79414100  0.94290900  0.51771300  1
  H  232  1  0.86387400  0.94570000  0.51702300  1
  H  233  1  0.28467300  0.96010500  0.48713600  1
  H  234  1  0.35371700  0.95568800  0.48471600  1
  H  235  1  0.29609200  0.04105300  0.53339300  1
  H  236  1  0.36552500  0.03725900  0.53075000  1
  H  241  1  0.60836300  0.96356500  0.52152900  1
  H  242  1  0.97444600  0.97730700  0.31119300  1
  H  243  1  0.41783400  0.97224100  0.49634800  1
  H  244  1  0.04986000  0.97577700  0.71598400  1
  H  365  1  0.16595700  0.31026200  0.90156000  1
  H  366  1  0.17037600  0.30551100  0.93608200  1
  H  367  1  0.23975800  0.21180800  0.89573800  1
  H  368  1  0.24356200  0.20670600  0.93047900  1
  H  369  1  0.27007200  0.24282100  0.96015300  1
  H  370  1  0.27261000  0.24032000  0.99512400  1
  H  371  1  0.14803000  0.26143600  0.96287300  1
  H  372  1  0.15083700  0.25949900  0.99775200  1
  H  373  1  0.21393200  0.32819300  0.00689803  1
  H  374  1  0.21364500  0.38035100  0.03319500  1
  H  375  1  0.21378200  0.27364800  0.06001400  1
  H  376  1  0.21249800  0.22501100  0.08411400  1
  H  377  1  0.21136900  0.17055400  0.00596203  1
  H  378  1  0.21128700  0.11778200  0.03213000  1
  H  379  1  0.27228700  0.09523440  0.07422400  1
  H  380  1  0.26934200  0.02532240  0.07303700  1
  H  381  1  0.14951000  0.10091100  0.06889400  1
  H  382  1  0.14631600  0.03116340  0.06805000  1
  H  383  1  0.21332000  0.11830000  0.11092300  1
  H  384  1  0.21328500  0.17044000  0.13722200  1
  H  385  1  0.21146600  0.38087300  0.11199600  1
  H  386  1  0.21057100  0.32810400  0.13815900  1
  H  387  1  0.14995400  0.23787800  0.14654300  1
  H  388  1  0.14765800  0.23509000  0.18145900  1
  H  389  1  0.27141500  0.25905700  0.14888100  1
  H  390  1  0.26938100  0.25581900  0.18380800  1
  H  391  1  0.24309400  0.29047400  0.21383100  1
  H  392  1  0.24398500  0.28143500  0.24846900  1
  H  393  1  0.17244100  0.18149300  0.24227200  1
  H  394  1  0.17217200  0.19010400  0.20777700  1
  H  395  1  0.27311300  0.40302500  0.06961600  1
  H  396  1  0.27065100  0.47296200  0.07064000  1
  H  397  1  0.16579600  0.52262600  0.09778900  1
  H  398  1  0.15994000  0.59183900  0.09866900  1
  H  399  1  0.24245800  0.60137700  0.05296800  1
  H  400  1  0.24763400  0.53175500  0.05176500  1
  H  401  1  0.14766100  0.46793700  0.07609700  1
  H  402  1  0.15039900  0.39820400  0.07546300  1
  H  403  1  0.16484800  0.97737600  0.04547200  1
  H  404  1  0.16046100  0.90833000  0.04303900  1
  H  405  1  0.24583500  0.96595700  0.09171200  1
  H  406  1  0.24206900  0.89652500  0.08905700  1
  H  411  1  0.16837800  0.65367800  0.07980400  1
  H  412  1  0.17948400  0.28480700  0.86960100  1
  H  413  1  0.17705400  0.84420900  0.05465800  1
  H  414  1  0.20764900  0.19562100  0.27330600  1
  H  487  1  0.15523400  0.19620300  0.40167200  1
  H  488  1  0.16072100  0.19987400  0.43617900  1
  H  489  1  0.25300800  0.27084200  0.39570000  1
  H  490  1  0.25888100  0.27387500  0.43043300  1
  H  491  1  0.22326600  0.29970000  0.46029700  1
  H  492  1  0.22612900  0.30196800  0.49525700  1
  H  493  1  0.20503400  0.17758600  0.46281500  1
  H  494  1  0.20730400  0.18013000  0.49769800  1
  H  495  1  0.13854700  0.24315400  0.50695100  1
  H  496  1  0.08639500  0.24292600  0.53325100  1
  H  497  1  0.19311200  0.24291400  0.56005900  1
  H  498  1  0.24176300  0.24279700  0.58414800  1
  H  499  1  0.29619200  0.24060900  0.50600500  1
  H  500  1  0.34898100  0.24063600  0.53217100  1
  H  501  1  0.37161600  0.30163900  0.57433600  1
  H  502  1  0.44152500  0.29861100  0.57321900  1
  H  503  1  0.36580400  0.17888400  0.56892200  1
  H  504  1  0.43555500  0.17560500  0.56815300  1
  H  505  1  0.34846600  0.24258700  0.61097400  1
  H  506  1  0.29630600  0.24309900  0.63726500  1
  H  507  1  0.08588900  0.24116800  0.61205200  1
  H  508  1  0.13867600  0.24092000  0.63821000  1
  H  509  1  0.22773800  0.18016000  0.64642400  1
  H  510  1  0.22994100  0.17746000  0.68130400  1
  H  511  1  0.20843300  0.30192300  0.64899700  1
  H  512  1  0.21117900  0.29948900  0.68396500  1
  H  513  1  0.17530500  0.27292500  0.71373600  1
  H  514  1  0.18085000  0.26935700  0.74846600  1
  H  515  1  0.27955800  0.19594600  0.74245500  1
  H  516  1  0.27435400  0.20012800  0.70793900  1
  H  517  1  0.06368600  0.30241800  0.56973100  1
  H  518  1  0.99375600  0.29990100  0.57081300  1
  H  519  1  0.94420500  0.19496900  0.59793500  1
  H  520  1  0.87499500  0.18907500  0.59882800  1
  H  521  1  0.86537100  0.27166600  0.55316200  1
  H  522  1  0.93497900  0.27688400  0.55194800  1
  H  523  1  0.99888700  0.17690400  0.57621200  1
  H  524  1  0.06862000  0.17969500  0.57552200  1
  H  525  1  0.48941900  0.19410000  0.54563500  1
  H  526  1  0.55846300  0.18968300  0.54321500  1
  H  527  1  0.50083800  0.27504800  0.59189200  1
  H  528  1  0.57027100  0.27125400  0.58924900  1
  H  533  1  0.81310900  0.19756000  0.58002800  1
  H  534  1  0.17919200  0.21130200  0.36969200  1
  H  535  1  0.62258000  0.20623600  0.55484700  1
  H  536  1  0.25460600  0.20977200  0.77448300  1
  H  657  1  0.37070300  0.54425800  0.96005900  1
  H  658  1  0.37512200  0.53950700  0.99458100  1
  H  659  1  0.44450400  0.44580400  0.95423700  1
  H  660  1  0.44830800  0.44070200  0.98897800  1
  H  661  1  0.47481800  0.47681700  0.01865210  1
  H  662  1  0.47735600  0.47431600  0.05362310  1
  H  663  1  0.35277600  0.49543200  0.02137210  1
  H  664  1  0.35558300  0.49349500  0.05625110  1
  H  665  1  0.41867800  0.56218900  0.06539710  1
  H  666  1  0.41839100  0.61434700  0.09169410  1
  H  667  1  0.41852800  0.50764400  0.11851300  1
  H  668  1  0.41724400  0.45900700  0.14261300  1
  H  669  1  0.41611500  0.40455000  0.06446110  1
  H  670  1  0.41603300  0.35177800  0.09062910  1
  H  671  1  0.47703300  0.32923000  0.13272300  1
  H  672  1  0.47408800  0.25931800  0.13153600  1
  H  673  1  0.35425600  0.33490700  0.12739300  1
  H  674  1  0.35106200  0.26515900  0.12654900  1
  H  675  1  0.41806600  0.35229600  0.16942200  1
  H  676  1  0.41803100  0.40443600  0.19572100  1
  H  677  1  0.41621200  0.61486900  0.17049500  1
  H  678  1  0.41531700  0.56210000  0.19665800  1
  H  679  1  0.35470000  0.47187400  0.20504200  1
  H  680  1  0.35240400  0.46908600  0.23995800  1
  H  681  1  0.47616100  0.49305300  0.20738000  1
  H  682  1  0.47412700  0.48981500  0.24230700  1
  H  683  1  0.44784000  0.52447000  0.27233000  1
  H  684  1  0.44873100  0.51543100  0.30696800  1
  H  685  1  0.37718700  0.41548900  0.30077100  1
  H  686  1  0.37691800  0.42410000  0.26627600  1
  H  687  1  0.47785900  0.63702100  0.12811500  1
  H  688  1  0.47539700  0.70695800  0.12913900  1
  H  689  1  0.37054200  0.75662200  0.15628800  1
  H  690  1  0.36468600  0.82583500  0.15716800  1
  H  691  1  0.44720400  0.83537300  0.11146700  1
  H  692  1  0.45238000  0.76575100  0.11026400  1
  H  693  1  0.35240700  0.70193300  0.13459600  1
  H  694  1  0.35514500  0.63220000  0.13396200  1
  H  695  1  0.36959400  0.21137200  0.10397100  1
  H  696  1  0.36520700  0.14232600  0.10153800  1
  H  697  1  0.45058100  0.19995300  0.15021100  1
  H  698  1  0.44681500  0.13052100  0.14755600  1
  H  703  1  0.37312400  0.88767400  0.13830300  1
  H  704  1  0.38423000  0.51880300  0.92810000  1
  H  705  1  0.38180000  0.07820490  0.11315700  1
  H  706  1  0.41239500  0.42961700  0.33180500  1
  H  779  1  0.35998000  0.43019900  0.46017100  1
  H  780  1  0.36546700  0.43387000  0.49467800  1
  H  781  1  0.45775400  0.50483800  0.45419900  1
  H  782  1  0.46362700  0.50787100  0.48893200  1
  H  783  1  0.42801200  0.53369600  0.51879600  1
  H  784  1  0.43087500  0.53596400  0.55375600  1
  H  785  1  0.40978000  0.41158200  0.52131400  1
  H  786  1  0.41205000  0.41412600  0.55619700  1
  H  787  1  0.34329300  0.47715000  0.56545000  1
  H  788  1  0.29114100  0.47692200  0.59175000  1
  H  789  1  0.39785800  0.47691000  0.61855800  1
  H  790  1  0.44650900  0.47679300  0.64264700  1
  H  791  1  0.50093800  0.47460500  0.56450400  1
  H  792  1  0.55372700  0.47463200  0.59067000  1
  H  793  1  0.57636200  0.53563500  0.63283500  1
  H  794  1  0.64627100  0.53260700  0.63171800  1
  H  795  1  0.57055000  0.41288000  0.62742100  1
  H  796  1  0.64030100  0.40960100  0.62665200  1
  H  797  1  0.55321200  0.47658300  0.66947300  1
  H  798  1  0.50105200  0.47709500  0.69576400  1
  H  799  1  0.29063500  0.47516400  0.67055100  1
  H  800  1  0.34342200  0.47491600  0.69670900  1
  H  801  1  0.43248400  0.41415600  0.70492300  1
  H  802  1  0.43468700  0.41145600  0.73980300  1
  H  803  1  0.41317900  0.53591900  0.70749600  1
  H  804  1  0.41592500  0.53348500  0.74246400  1
  H  805  1  0.38005100  0.50692100  0.77223500  1
  H  806  1  0.38559600  0.50335300  0.80696500  1
  H  807  1  0.48430400  0.42994200  0.80095400  1
  H  808  1  0.47910000  0.43412400  0.76643800  1
  H  809  1  0.26843200  0.53641400  0.62823000  1
  H  810  1  0.19850200  0.53389700  0.62931200  1
  H  811  1  0.14895100  0.42896500  0.65643400  1
  H  812  1  0.07974100  0.42307100  0.65732700  1
  H  813  1  0.07011700  0.50566200  0.61166100  1
  H  814  1  0.13972500  0.51088000  0.61044700  1
  H  815  1  0.20363300  0.41090000  0.63471100  1
  H  816  1  0.27336600  0.41369100  0.63402100  1
  H  817  1  0.69416500  0.42809600  0.60413400  1
  H  818  1  0.76320900  0.42367900  0.60171400  1
  H  819  1  0.70558400  0.50904400  0.65039100  1
  H  820  1  0.77501700  0.50525000  0.64774800  1
  H  825  1  0.01785500  0.43155600  0.63852700  1
  H  826  1  0.38393800  0.44529800  0.42819100  1
  H  827  1  0.82732600  0.44023200  0.61334600  1
  H  828  1  0.45935200  0.44376800  0.83298200  1
  C  1  1  0.00926400  0.08850400  0.96307400  1
  C  2  1  0.00914200  0.11696000  0.97741200  1
  C  3  1  0.00914500  0.09849100  0.99564300  1
  C  5  1  0.00908900  0.05186900  0.97215000  1
  C  6  1  0.00868500  0.01528900  0.96214100  1
  C  7  1  0.00849200  0.97815800  0.97150600  1
  C  9  1  0.00812100  0.93152500  0.99463700  1
  C  10  1  0.00728700  0.91315700  0.97639200  1
  C  11  1  0.00738100  0.94183300  0.96217000  1
  C  12  1  0.00809400  0.91246900  0.01312500  1
  C  13  1  0.00846600  0.93218300  0.03148500  1
  C  15  1  0.00810900  0.97879500  0.05498000  1
  C  16  1  0.00850100  0.94215500  0.06405200  1
  C  17  1  0.00856800  0.91370400  0.04971200  1
  C  18  1  0.00753300  0.01536700  0.06499800  1
  C  19  1  0.00774600  0.05249500  0.05562600  1
  C  21  1  0.00822300  0.09913500  0.03249200  1
  C  22  1  0.00725200  0.11750400  0.05073600  1
  C  23  1  0.00679000  0.08882700  0.06495600  1
  C  24  1  0.00862100  0.11820000  0.01400600  1
  C  25  1  0.00725800  0.16002700  0.01395300  1
  C  26  1  0.97116700  0.17972800  0.01584600  1
  C  27  1  0.96972500  0.22087300  0.01638700  1
  C  28  1  0.00416900  0.24385100  0.01504600  1
  C  29  1  0.04017800  0.22374900  0.01284600  1
  C  30  1  0.04177000  0.18253900  0.01239000  1
  C  31  1  0.00242300  0.28578800  0.01609800  1
  C  32  1  0.02492300  0.30997700  0.00355800  1
  C  33  1  0.02181100  0.35112800  0.00420900  1
  C  34  1  0.99613400  0.36969900  0.01752700  1
  C  35  1  0.97414200  0.34567300  0.03028500  1
  C  36  1  0.97737400  0.30465700  0.02964000  1
  C  37  1  0.00614100  0.01480900  0.08591300  1
  C  38  1  0.97050000  0.00800400  0.09579200  1
  C  39  1  0.96930100  0.00614100  0.11636300  1
  C  40  1  0.00352600  0.01128600  0.12778600  1
  C  41  1  0.03900900  0.01876000  0.11773200  1
  C  42  1  0.04037400  0.02035600  0.09714600  1
  C  43  1  0.00261300  0.00738400  0.14867700  1
  C  44  1  0.98200400  0.97622700  0.15762600  1
  C  45  1  0.98245700  0.97092100  0.17804000  1
  C  46  1  0.00326000  0.99676900  0.19041600  1
  C  47  1  0.02342800  0.02832000  0.18159100  1
  C  48  1  0.02323000  0.03337800  0.16111100  1
  C  49  1  0.00644200  0.87065700  0.01318000  1
  C  50  1  0.04083000  0.84791600  0.01456600  1
  C  51  1  0.03895600  0.80672400  0.01402700  1
  C  52  1  0.00277700  0.78689800  0.01191000  1
  C  53  1  0.96845600  0.81008400  0.01076600  1
  C  54  1  0.97018100  0.85121500  0.01141300  1
  C  55  1  0.00087900  0.74503900  0.01044000  1
  C  56  1  0.97630900  0.72686100  0.99646600  1
  C  57  1  0.97398700  0.68587900  0.99491500  1
  C  58  1  0.99615200  0.66105300  0.00725100  1
  C  59  1  0.02091800  0.67914300  0.02119400  1
  C  60  1  0.02332600  0.72025100  0.02268800  1
  C  61  1  0.00725200  0.01581300  0.94123200  1
  C  62  1  0.04144100  0.01059800  0.92991800  1
  C  63  1  0.97138300  0.02181300  0.93144900  1
  C  64  1  0.96989500  0.02319800  0.91088500  1
  C  65  1  0.00405500  0.01847700  0.89936200  1
  C  66  1  0.03979200  0.01175100  0.90932000  1
  C  67  1  0.00244100  0.02141600  0.87844300  1
  C  68  1  0.02274500  0.99504300  0.86609000  1
  C  69  1  0.02030700  0.99792700  0.84553300  1
  C  70  1  0.99764400  0.02753600  0.83647300  1
  C  71  1  0.97781500  0.05417700  0.84885300  1
  C  72  1  0.98015200  0.05118600  0.86933900  1
  C  115  1  0.99015300  0.40999000  0.01772500  1
  C  116  1  0.00469300  0.98934300  0.21043600  1
  C  117  1  0.99229700  0.62048100  0.00543600  1
  C  118  1  0.99369500  0.03118600  0.81620200  1
  C  123  1  0.93950200  0.00922400  0.46312500  1
  C  124  1  0.91104800  0.00912400  0.47746500  1
  C  125  1  0.92952500  0.00914700  0.49569300  1
  C  127  1  0.97614200  0.00903900  0.47219800  1
  C  128  1  0.01272200  0.00863600  0.46218600  1
  C  129  1  0.04985700  0.00850100  0.47155000  1
  C  131  1  0.09650700  0.00824700  0.49468100  1
  C  132  1  0.11486500  0.00738700  0.47643400  1
  C  133  1  0.08618100  0.00740100  0.46221400  1
  C  134  1  0.11556900  0.00827900  0.51316800  1
  C  135  1  0.09585500  0.00882900  0.53152600  1
  C  137  1  0.04923300  0.00896900  0.55501200  1
  C  138  1  0.08586700  0.00906900  0.56409300  1
  C  139  1  0.11432400  0.00882900  0.54975800  1
  C  140  1  0.01265200  0.00871500  0.56501900  1
  C  141  1  0.97551600  0.00866800  0.55566000  1
  C  143  1  0.92887500  0.00859200  0.53253800  1
  C  144  1  0.91051200  0.00778200  0.55078700  1
  C  145  1  0.93919700  0.00769100  0.56500200  1
  C  146  1  0.90981300  0.00871800  0.51405400  1
  C  147  1  0.86799200  0.00731100  0.51401500  1
  C  148  1  0.84833100  0.97120200  0.51591900  1
  C  149  1  0.80718900  0.96973100  0.51650100  1
  C  150  1  0.78418400  0.00416000  0.51519200  1
  C  151  1  0.80424900  0.04019100  0.51300400  1
  C  152  1  0.84545600  0.04181200  0.51249200  1
  C  153  1  0.74225200  0.00238800  0.51626000  1
  C  154  1  0.71804200  0.02488600  0.50373100  1
  C  155  1  0.67689400  0.02175900  0.50439300  1
  C  156  1  0.65835300  0.99603800  0.51770000  1
  C  157  1  0.68239900  0.97405400  0.53045200  1
  C  158  1  0.72341200  0.97730400  0.52979600  1
  C  159  1  0.01318400  0.00730800  0.58592300  1
  C  160  1  0.01929000  0.97146500  0.59571700  1
  C  161  1  0.02082900  0.97004400  0.61628000  1
  C  162  1  0.01616200  0.00423900  0.62777900  1
  C  163  1  0.00928800  0.03993600  0.61781200  1
  C  164  1  0.00799800  0.04152300  0.59721800  1
  C  165  1  0.01933300  0.00271300  0.64868700  1
  C  166  1  0.04931100  0.98060600  0.65772800  1
  C  167  1  0.05256900  0.97840900  0.67820700  1
  C  168  1  0.02599600  0.99820200  0.69063800  1
  C  169  1  0.99616400  0.02066500  0.68163600  1
  C  170  1  0.99300800  0.02296000  0.66108600  1
  C  171  1  0.15738000  0.00656800  0.51323200  1
  C  172  1  0.18016400  0.04091700  0.51468300  1
  C  173  1  0.22135500  0.03899500  0.51418000  1
  C  174  1  0.24114700  0.00279700  0.51206100  1
  C  175  1  0.21792100  0.96850800  0.51087300  1
  C  176  1  0.17678700  0.97028400  0.51147200  1
  C  177  1  0.28301000  0.00086100  0.51061200  1
  C  178  1  0.30119100  0.97629700  0.49663500  1
  C  179  1  0.34217200  0.97395700  0.49509200  1
  C  180  1  0.36699900  0.99610800  0.50743400  1
  C  181  1  0.34891100  0.02087400  0.52137700  1
  C  182  1  0.30780100  0.02328300  0.52287000  1
  C  183  1  0.01216900  0.00729300  0.44127400  1
  C  184  1  0.01717300  0.04158000  0.43001000  1
  C  185  1  0.00614900  0.97148900  0.43143300  1
  C  186  1  0.00455800  0.97015800  0.41086800  1
  C  187  1  0.00906000  0.00442100  0.39939500  1
  C  188  1  0.01576400  0.04009500  0.40941400  1
  C  189  1  0.00583600  0.00302000  0.37847500  1
  C  190  1  0.03181700  0.02373900  0.36608100  1
  C  191  1  0.02849200  0.02175100  0.34552400  1
  C  192  1  0.99881700  0.99913200  0.33650400  1
  C  193  1  0.97262700  0.97879500  0.34892800  1
  C  194  1  0.97605200  0.98069400  0.36941000  1
  C  237  1  0.61806200  0.99006200  0.51791400  1
  C  238  1  0.02994300  0.99445300  0.71090300  1
  C  239  1  0.40757400  0.99224100  0.50562200  1
  C  240  1  0.99452000  0.99585900  0.31623000  1
  C  245  1  0.01237700  0.01132100  0.78412800  1
  C  247  1  0.98551100  0.03752400  0.75429400  1
  C  248  1  0.01016500  0.01314300  0.74299200  1
  C  250  1  0.03695400  0.98686500  0.77282500  1
  C  251  1  0.06184000  0.96234200  0.78033600  1
  C  252  1  0.96062600  0.06204500  0.74677900  1
  C  257  1  0.01303500  0.01503200  0.28405100  1
  C  259  1  0.98333200  0.99002100  0.25463600  1
  C  260  1  0.00822000  0.01362000  0.24295100  1
  C  262  1  0.03743300  0.03898200  0.27236800  1
  C  263  1  0.06318800  0.06294100  0.27959600  1
  C  264  1  0.95588400  0.96757500  0.24780500  1
  C  269  1  0.01179500  0.55644200  0.01441300  1
  C  271  1  0.05000400  0.49750100  0.01235000  1
  C  272  1  0.01592500  0.47425400  0.01417000  1
  C  274  1  0.97763700  0.53324400  0.01642700  1
  C  275  1  0.94276600  0.54734800  0.01913700  1
  C  276  1  0.08495700  0.48293200  0.01059100  1
  C  281  1  0.47161800  0.01173900  0.51459500  1
  C  283  1  0.53056800  0.04993000  0.51252600  1
  C  284  1  0.55380600  0.01584500  0.51434400  1
  C  286  1  0.49480700  0.97757000  0.51659300  1
  C  287  1  0.48070300  0.94269900  0.51930000  1
  C  288  1  0.54514900  0.08487800  0.51076200  1
  C  293  1  0.21401000  0.32249900  0.02157300  1
  C  294  1  0.21388800  0.35095500  0.03591100  1
  C  295  1  0.21389100  0.33248600  0.05414200  1
  C  297  1  0.21383500  0.28586400  0.03064900  1
  C  298  1  0.21343100  0.24928400  0.02064000  1
  C  299  1  0.21323800  0.21215300  0.03000500  1
  C  301  1  0.21286700  0.16552000  0.05313600  1
  C  302  1  0.21203300  0.14715200  0.03489100  1
  C  303  1  0.21212700  0.17582800  0.02066900  1
  C  304  1  0.21284000  0.14646400  0.07162400  1
  C  305  1  0.21321200  0.16617800  0.08998400  1
  C  307  1  0.21285500  0.21279000  0.11347900  1
  C  308  1  0.21324700  0.17615000  0.12255100  1
  C  309  1  0.21331400  0.14769900  0.10821100  1
  C  310  1  0.21227900  0.24936200  0.12349700  1
  C  311  1  0.21249200  0.28649000  0.11412500  1
  C  313  1  0.21296900  0.33313000  0.09099100  1
  C  314  1  0.21199800  0.35149900  0.10923500  1
  C  315  1  0.21153600  0.32282200  0.12345500  1
  C  316  1  0.21336700  0.35219500  0.07250500  1
  C  317  1  0.21200400  0.39402200  0.07245200  1
  C  318  1  0.17591300  0.41372300  0.07434500  1
  C  319  1  0.17447100  0.45486800  0.07488600  1
  C  320  1  0.20891500  0.47784600  0.07354500  1
  C  321  1  0.24492400  0.45774400  0.07134500  1
  C  322  1  0.24651600  0.41653400  0.07088900  1
  C  323  1  0.20716900  0.51978300  0.07459700  1
  C  324  1  0.22966900  0.54397200  0.06205700  1
  C  325  1  0.22655700  0.58512300  0.06270800  1
  C  326  1  0.20088000  0.60369400  0.07602600  1
  C  327  1  0.17888800  0.57966800  0.08878400  1
  C  328  1  0.18212000  0.53865200  0.08813900  1
  C  329  1  0.21088700  0.24880400  0.14441200  1
  C  330  1  0.17524600  0.24199900  0.15429100  1
  C  331  1  0.17404700  0.24013600  0.17486200  1
  C  332  1  0.20827200  0.24528100  0.18628500  1
  C  333  1  0.24375500  0.25275500  0.17623100  1
  C  334  1  0.24512000  0.25435100  0.15564500  1
  C  335  1  0.20735900  0.24137900  0.20717600  1
  C  336  1  0.18675000  0.21022200  0.21612500  1
  C  337  1  0.18720300  0.20491600  0.23653900  1
  C  338  1  0.20800600  0.23076400  0.24891500  1
  C  339  1  0.22817400  0.26231500  0.24009000  1
  C  340  1  0.22797600  0.26737300  0.21961000  1
  C  341  1  0.21118800  0.10465200  0.07167900  1
  C  342  1  0.24557600  0.08191140  0.07306500  1
  C  343  1  0.24370200  0.04071940  0.07252600  1
  C  344  1  0.20752300  0.02089340  0.07040900  1
  C  345  1  0.17320200  0.04407940  0.06926500  1
  C  346  1  0.17492700  0.08521040  0.06991200  1
  C  347  1  0.20562500  0.97903400  0.06893900  1
  C  348  1  0.18105500  0.96085600  0.05496500  1
  C  349  1  0.17873300  0.91987400  0.05341400  1
  C  350  1  0.20089800  0.89504800  0.06575000  1
  C  351  1  0.22566400  0.91313800  0.07969300  1
  C  352  1  0.22807200  0.95424600  0.08118700  1
  C  353  1  0.21199800  0.24980800  0.99973100  1
  C  354  1  0.24618700  0.24459300  0.98841700  1
  C  355  1  0.17612900  0.25580800  0.98994800  1
  C  356  1  0.17464100  0.25719300  0.96938400  1
  C  357  1  0.20880100  0.25247200  0.95786100  1
  C  358  1  0.24453800  0.24574600  0.96781900  1
  C  359  1  0.20718700  0.25541100  0.93694200  1
  C  360  1  0.22749100  0.22903800  0.92458900  1
  C  361  1  0.22505300  0.23192200  0.90403200  1
  C  362  1  0.20239000  0.26153100  0.89497200  1
  C  363  1  0.18256100  0.28817200  0.90735200  1
  C  364  1  0.18489800  0.28518100  0.92783800  1
  C  407  1  0.19489900  0.64398500  0.07622400  1
  C  408  1  0.20943900  0.22333800  0.26893500  1
  C  409  1  0.19704300  0.85447600  0.06393500  1
  C  410  1  0.19844100  0.26518100  0.87470100  1
  C  415  1  0.14424800  0.24321900  0.52162400  1
  C  416  1  0.11579400  0.24311900  0.53596400  1
  C  417  1  0.13427100  0.24314200  0.55419200  1
  C  419  1  0.18088800  0.24303400  0.53069700  1
  C  420  1  0.21746800  0.24263100  0.52068500  1
  C  421  1  0.25460300  0.24249600  0.53004900  1
  C  423  1  0.30125300  0.24224200  0.55318000  1
  C  424  1  0.31961100  0.24138200  0.53493300  1
  C  425  1  0.29092700  0.24139600  0.52071300  1
  C  426  1  0.32031500  0.24227400  0.57166700  1
  C  427  1  0.30060100  0.24282400  0.59002500  1
  C  429  1  0.25397900  0.24296400  0.61351100  1
  C  430  1  0.29061300  0.24306400  0.62259200  1
  C  431  1  0.31907000  0.24282400  0.60825700  1
  C  432  1  0.21739800  0.24271000  0.62351800  1
  C  433  1  0.18026200  0.24266300  0.61415900  1
  C  435  1  0.13362100  0.24258700  0.59103700  1
  C  436  1  0.11525800  0.24177700  0.60928600  1
  C  437  1  0.14394300  0.24168600  0.62350100  1
  C  438  1  0.11455900  0.24271300  0.57255300  1
  C  439  1  0.07273800  0.24130600  0.57251400  1
  C  440  1  0.05307700  0.20519700  0.57441800  1
  C  441  1  0.01193500  0.20372600  0.57500000  1
  C  442  1  0.98893000  0.23815500  0.57369100  1
  C  443  1  0.00899501  0.27418600  0.57150300  1
  C  444  1  0.05020200  0.27580700  0.57099100  1
  C  445  1  0.94699800  0.23638300  0.57475900  1
  C  446  1  0.92278800  0.25888100  0.56223000  1
  C  447  1  0.88164000  0.25575400  0.56289200  1
  C  448  1  0.86309900  0.23003300  0.57619900  1
  C  449  1  0.88714500  0.20804900  0.58895100  1
  C  450  1  0.92815800  0.21129900  0.58829500  1
  C  451  1  0.21793000  0.24130300  0.64442200  1
  C  452  1  0.22403600  0.20546000  0.65421600  1
  C  453  1  0.22557500  0.20403900  0.67477900  1
  C  454  1  0.22090800  0.23823400  0.68627800  1
  C  455  1  0.21403400  0.27393100  0.67631100  1
  C  456  1  0.21274400  0.27551800  0.65571700  1
  C  457  1  0.22407900  0.23670800  0.70718600  1
  C  458  1  0.25405700  0.21460100  0.71622700  1
  C  459  1  0.25731500  0.21240400  0.73670600  1
  C  460  1  0.23074200  0.23219700  0.74913700  1
  C  461  1  0.20091000  0.25466000  0.74013500  1
  C  462  1  0.19775400  0.25695500  0.71958500  1
  C  463  1  0.36212600  0.24056300  0.57173100  1
  C  464  1  0.38491000  0.27491200  0.57318200  1
  C  465  1  0.42610100  0.27299000  0.57267900  1
  C  466  1  0.44589300  0.23679200  0.57056000  1
  C  467  1  0.42266700  0.20250300  0.56937200  1
  C  468  1  0.38153300  0.20427900  0.56997100  1
  C  469  1  0.48775600  0.23485600  0.56911100  1
  C  470  1  0.50593700  0.21029200  0.55513400  1
  C  471  1  0.54691800  0.20795200  0.55359100  1
  C  472  1  0.57174500  0.23010300  0.56593300  1
  C  473  1  0.55365700  0.25486900  0.57987600  1
  C  474  1  0.51254700  0.25727800  0.58136900  1
  C  475  1  0.21691500  0.24128800  0.49977300  1
  C  476  1  0.22191900  0.27557500  0.48850900  1
  C  477  1  0.21089500  0.20548400  0.48993200  1
  C  478  1  0.20930400  0.20415300  0.46936700  1
  C  479  1  0.21380600  0.23841600  0.45789400  1
  C  480  1  0.22051000  0.27409000  0.46791300  1
  C  481  1  0.21058200  0.23701500  0.43697400  1
  C  482  1  0.23656300  0.25773400  0.42458000  1
  C  483  1  0.23323800  0.25574600  0.40402300  1
  C  484  1  0.20356300  0.23312700  0.39500300  1
  C  485  1  0.17737300  0.21279000  0.40742700  1
  C  486  1  0.18079800  0.21468900  0.42790900  1
  C  529  1  0.82280800  0.22405700  0.57641300  1
  C  530  1  0.23468900  0.22844800  0.76940200  1
  C  531  1  0.61232000  0.22623600  0.56412100  1
  C  532  1  0.19926600  0.22985400  0.37472900  1
  C  537  1  0.21712300  0.24531600  0.84262700  1
  C  539  1  0.19025700  0.27151900  0.81279300  1
  C  540  1  0.21491100  0.24713800  0.80149100  1
  C  542  1  0.24170000  0.22086000  0.83132400  1
  C  543  1  0.26658600  0.19633700  0.83883500  1
  C  544  1  0.16537200  0.29604000  0.80527800  1
  C  549  1  0.21778100  0.24902700  0.34255000  1
  C  551  1  0.18807800  0.22401600  0.31313500  1
  C  552  1  0.21296600  0.24761500  0.30145000  1
  C  554  1  0.24217900  0.27297700  0.33086700  1
  C  555  1  0.26793400  0.29693600  0.33809500  1
  C  556  1  0.16063000  0.20157000  0.30630400  1
  C  561  1  0.21654100  0.79043700  0.07291200  1
  C  563  1  0.25475000  0.73149600  0.07084900  1
  C  564  1  0.22067100  0.70824900  0.07266900  1
  C  566  1  0.18238300  0.76723900  0.07492600  1
  C  567  1  0.14751200  0.78134300  0.07763600  1
  C  568  1  0.28970300  0.71692700  0.06909000  1
  C  573  1  0.67636400  0.24573400  0.57309400  1
  C  575  1  0.73531400  0.28392500  0.57102500  1
  C  576  1  0.75855200  0.24984000  0.57284300  1
  C  578  1  0.69955300  0.21156500  0.57509200  1
  C  579  1  0.68544900  0.17669400  0.57779900  1
  C  580  1  0.74989500  0.31887300  0.56926100  1
  C  585  1  0.41875600  0.55649500  0.08007210  1
  C  586  1  0.41863400  0.58495100  0.09441010  1
  C  587  1  0.41863700  0.56648200  0.11264100  1
  C  589  1  0.41858100  0.51986000  0.08914810  1
  C  590  1  0.41817700  0.48328000  0.07913910  1
  C  591  1  0.41798400  0.44614900  0.08850410  1
  C  593  1  0.41761300  0.39951600  0.11163500  1
  C  594  1  0.41677900  0.38114800  0.09339010  1
  C  595  1  0.41687300  0.40982400  0.07916810  1
  C  596  1  0.41758600  0.38046000  0.13012300  1
  C  597  1  0.41795800  0.40017400  0.14848300  1
  C  599  1  0.41760100  0.44678600  0.17197800  1
  C  600  1  0.41799300  0.41014600  0.18105000  1
  C  601  1  0.41806000  0.38169500  0.16671000  1
  C  602  1  0.41702500  0.48335800  0.18199600  1
  C  603  1  0.41723800  0.52048600  0.17262400  1
  C  605  1  0.41771500  0.56712600  0.14949000  1
  C  606  1  0.41674400  0.58549500  0.16773400  1
  C  607  1  0.41628200  0.55681800  0.18195400  1
  C  608  1  0.41811300  0.58619100  0.13100400  1
  C  609  1  0.41675000  0.62801800  0.13095100  1
  C  610  1  0.38065900  0.64771900  0.13284400  1
  C  611  1  0.37921700  0.68886400  0.13338500  1
  C  612  1  0.41366100  0.71184200  0.13204400  1
  C  613  1  0.44967000  0.69174000  0.12984400  1
  C  614  1  0.45126200  0.65053000  0.12938800  1
  C  615  1  0.41191500  0.75377900  0.13309600  1
  C  616  1  0.43441500  0.77796800  0.12055600  1
  C  617  1  0.43130300  0.81911900  0.12120700  1
  C  618  1  0.40562600  0.83769000  0.13452500  1
  C  619  1  0.38363400  0.81366400  0.14728300  1
  C  620  1  0.38686600  0.77264800  0.14663800  1
  C  621  1  0.41563300  0.48280000  0.20291100  1
  C  622  1  0.37999200  0.47599500  0.21279000  1
  C  623  1  0.37879300  0.47413200  0.23336100  1
  C  624  1  0.41301800  0.47927700  0.24478400  1
  C  625  1  0.44850100  0.48675100  0.23473000  1
  C  626  1  0.44986600  0.48834700  0.21414400  1
  C  627  1  0.41210500  0.47537500  0.26567500  1
  C  628  1  0.39149600  0.44421800  0.27462400  1
  C  629  1  0.39194900  0.43891200  0.29503800  1
  C  630  1  0.41275200  0.46476000  0.30741400  1
  C  631  1  0.43292000  0.49631100  0.29858900  1
  C  632  1  0.43272200  0.50136900  0.27810900  1
  C  633  1  0.41593400  0.33864800  0.13017800  1
  C  634  1  0.45032200  0.31590700  0.13156400  1
  C  635  1  0.44844800  0.27471500  0.13102500  1
  C  636  1  0.41226900  0.25488900  0.12890800  1
  C  637  1  0.37794800  0.27807500  0.12776400  1
  C  638  1  0.37967300  0.31920600  0.12841100  1
  C  639  1  0.41037100  0.21303000  0.12743800  1
  C  640  1  0.38580100  0.19485200  0.11346400  1
  C  641  1  0.38347900  0.15387000  0.11191300  1
  C  642  1  0.40564400  0.12904400  0.12424900  1
  C  643  1  0.43041000  0.14713400  0.13819200  1
  C  644  1  0.43281800  0.18824200  0.13968600  1
  C  645  1  0.41674400  0.48380400  0.05823010  1
  C  646  1  0.45093300  0.47858900  0.04691610  1
  C  647  1  0.38087500  0.48980400  0.04844710  1
  C  648  1  0.37938700  0.49118900  0.02788310  1
  C  649  1  0.41354700  0.48646800  0.01636010  1
  C  650  1  0.44928400  0.47974200  0.02631810  1
  C  651  1  0.41193300  0.48940700  0.99544100  1
  C  652  1  0.43223700  0.46303400  0.98308800  1
  C  653  1  0.42979900  0.46591800  0.96253100  1
  C  654  1  0.40713600  0.49552700  0.95347100  1
  C  655  1  0.38730700  0.52216800  0.96585100  1
  C  656  1  0.38964400  0.51917700  0.98633700  1
  C  699  1  0.39964500  0.87798100  0.13472300  1
  C  700  1  0.41418500  0.45733400  0.32743400  1
  C  701  1  0.40178900  0.08847190  0.12243400  1
  C  702  1  0.40318700  0.49917700  0.93320000  1
  C  707  1  0.34899400  0.47721500  0.58012300  1
  C  708  1  0.32054000  0.47711500  0.59446300  1
  C  709  1  0.33901700  0.47713800  0.61269100  1
  C  711  1  0.38563400  0.47703000  0.58919600  1
  C  712  1  0.42221400  0.47662700  0.57918400  1
  C  713  1  0.45934900  0.47649200  0.58854800  1
  C  715  1  0.50599900  0.47623800  0.61167900  1
  C  716  1  0.52435700  0.47537800  0.59343200  1
  C  717  1  0.49567300  0.47539200  0.57921200  1
  C  718  1  0.52506100  0.47627000  0.63016600  1
  C  719  1  0.50534700  0.47682000  0.64852400  1
  C  721  1  0.45872500  0.47696000  0.67201000  1
  C  722  1  0.49535900  0.47706000  0.68109100  1
  C  723  1  0.52381600  0.47682000  0.66675600  1
  C  724  1  0.42214400  0.47670600  0.68201700  1
  C  725  1  0.38500800  0.47665900  0.67265800  1
  C  727  1  0.33836700  0.47658300  0.64953600  1
  C  728  1  0.32000400  0.47577300  0.66778500  1
  C  729  1  0.34868900  0.47568200  0.68200000  1
  C  730  1  0.31930500  0.47670900  0.63105200  1
  C  731  1  0.27748400  0.47530200  0.63101300  1
  C  732  1  0.25782300  0.43919300  0.63291700  1
  C  733  1  0.21668100  0.43772200  0.63349900  1
  C  734  1  0.19367600  0.47215100  0.63219000  1
  C  735  1  0.21374100  0.50818200  0.63000200  1
  C  736  1  0.25494800  0.50980300  0.62949000  1
  C  737  1  0.15174400  0.47037900  0.63325800  1
  C  738  1  0.12753400  0.49287700  0.62072900  1
  C  739  1  0.08638600  0.48975000  0.62139100  1
  C  740  1  0.06784500  0.46402900  0.63469800  1
  C  741  1  0.09189100  0.44204500  0.64745000  1
  C  742  1  0.13290400  0.44529500  0.64679400  1
  C  743  1  0.42267600  0.47529900  0.70292100  1
  C  744  1  0.42878200  0.43945600  0.71271500  1
  C  745  1  0.43032100  0.43803500  0.73327800  1
  C  746  1  0.42565400  0.47223000  0.74477700  1
  C  747  1  0.41878000  0.50792700  0.73481000  1
  C  748  1  0.41749000  0.50951400  0.71421600  1
  C  749  1  0.42882500  0.47070400  0.76568500  1
  C  750  1  0.45880300  0.44859700  0.77472600  1
  C  751  1  0.46206100  0.44640000  0.79520500  1
  C  752  1  0.43548800  0.46619300  0.80763600  1
  C  753  1  0.40565600  0.48865600  0.79863400  1
  C  754  1  0.40250000  0.49095100  0.77808400  1
  C  755  1  0.56687200  0.47455900  0.63023000  1
  C  756  1  0.58965600  0.50890800  0.63168100  1
  C  757  1  0.63084700  0.50698600  0.63117800  1
  C  758  1  0.65063900  0.47078800  0.62905900  1
  C  759  1  0.62741300  0.43649900  0.62787100  1
  C  760  1  0.58627900  0.43827500  0.62847000  1
  C  761  1  0.69250200  0.46885200  0.62761000  1
  C  762  1  0.71068300  0.44428800  0.61363300  1
  C  763  1  0.75166400  0.44194800  0.61209000  1
  C  764  1  0.77649100  0.46409900  0.62443200  1
  C  765  1  0.75840300  0.48886500  0.63837500  1
  C  766  1  0.71729300  0.49127400  0.63986800  1
  C  767  1  0.42166100  0.47528400  0.55827200  1
  C  768  1  0.42666500  0.50957100  0.54700800  1
  C  769  1  0.41564100  0.43948000  0.54843100  1
  C  770  1  0.41405000  0.43814900  0.52786600  1
  C  771  1  0.41855200  0.47241200  0.51639300  1
  C  772  1  0.42525600  0.50808600  0.52641200  1
  C  773  1  0.41532800  0.47101100  0.49547300  1
  C  774  1  0.44130900  0.49173000  0.48307900  1
  C  775  1  0.43798400  0.48974200  0.46252200  1
  C  776  1  0.40830900  0.46712300  0.45350200  1
  C  777  1  0.38211900  0.44678600  0.46592600  1
  C  778  1  0.38554400  0.44868500  0.48640800  1
  C  821  1  0.02755400  0.45805300  0.63491200  1
  C  822  1  0.43943500  0.46244400  0.82790100  1
  C  823  1  0.81706600  0.46023200  0.62262000  1
  C  824  1  0.40401200  0.46385000  0.43322800  1
  C  829  1  0.42186900  0.47931200  0.90112600  1
  C  831  1  0.39500300  0.50551500  0.87129200  1
  C  832  1  0.41965700  0.48113400  0.85999000  1
  C  834  1  0.44644600  0.45485600  0.88982300  1
  C  835  1  0.47133200  0.43033300  0.89733400  1
  C  836  1  0.37011800  0.53003600  0.86377700  1
  C  841  1  0.42252700  0.48302300  0.40104900  1
  C  843  1  0.39282400  0.45801200  0.37163400  1
  C  844  1  0.41771200  0.48161100  0.35994900  1
  C  846  1  0.44692500  0.50697300  0.38936600  1
  C  847  1  0.47268000  0.53093200  0.39659400  1
  C  848  1  0.36537600  0.43556600  0.36480300  1
  C  853  1  0.42128700  0.02443290  0.13141100  1
  C  855  1  0.45949600  0.96549200  0.12934800  1
  C  856  1  0.42541700  0.94224500  0.13116800  1
  C  858  1  0.38712900  0.00123489  0.13342500  1
  C  859  1  0.35225800  0.01533890  0.13613500  1
  C  860  1  0.49444900  0.95092300  0.12758900  1
  C  865  1  0.88111000  0.47973000  0.63159300  1
  C  867  1  0.94006000  0.51792100  0.62952400  1
  C  868  1  0.96329800  0.48383600  0.63134200  1
  C  870  1  0.90429900  0.44556100  0.63359100  1
  C  871  1  0.89019500  0.41069000  0.63629800  1
  C  872  1  0.95464100  0.55286900  0.62776000  1
  N  4  1  0.00929100  0.05959500  0.99162700  1
  N  8  1  0.00893100  0.97038600  0.99090900  1
  N  14  1  0.00837800  0.97107600  0.03550200  1
  N  20  1  0.00859200  0.06026700  0.03622500  1
  N  126  1  0.96842100  0.00924400  0.49167400  1
  N  130  1  0.05764100  0.00899200  0.49095200  1
  N  136  1  0.05695900  0.00907700  0.53553700  1
  N  142  1  0.96773900  0.00919100  0.53625900  1
  N  246  1  0.98778700  0.03549400  0.77410700  1
  N  249  1  0.03472300  0.98893600  0.75301000  1
  N  253  1  0.93861500  0.08373000  0.74019700  1
  N  254  1  0.08385100  0.94064800  0.78691300  1
  N  255  1  0.01318700  0.01081500  0.80369700  1
  N  256  1  0.00946000  0.01377800  0.72342500  1
  N  258  1  0.98695300  0.99192500  0.27438200  1
  N  261  1  0.03375000  0.03731400  0.25256700  1
  N  265  1  0.93161900  0.94764800  0.24184100  1
  N  266  1  0.08591400  0.08411300  0.28598700  1
  N  267  1  0.01462500  0.01544200  0.30363300  1
  N  268  1  0.00765000  0.01640600  0.22346200  1
  N  270  1  0.04639900  0.53713400  0.01268400  1
  N  273  1  0.98137200  0.49370200  0.01622000  1
  N  277  1  0.11582200  0.47005100  0.00905200  1
  N  278  1  0.91190500  0.55972700  0.02150400  1
  N  279  1  0.01330100  0.59546900  0.01484500  1
  N  280  1  0.01735200  0.43509700  0.01418200  1
  N  282  1  0.49093500  0.04633500  0.51286400  1
  N  285  1  0.53435000  0.98129300  0.51638700  1
  N  289  1  0.55804500  0.11573700  0.50922100  1
  N  290  1  0.46832800  0.91183500  0.52166500  1
  N  291  1  0.43258800  0.01325100  0.51502500  1
  N  292  1  0.59296000  0.01725700  0.51434800  1
  N  296  1  0.21403700  0.29359000  0.05012600  1
  N  300  1  0.21367700  0.20438100  0.04940800  1
  N  306  1  0.21312400  0.20507100  0.09400100  1
  N  312  1  0.21333800  0.29426200  0.09472400  1
  N  418  1  0.17316700  0.24323900  0.55017300  1
  N  422  1  0.26238700  0.24298700  0.54945100  1
  N  428  1  0.26170500  0.24307200  0.59403600  1
  N  434  1  0.17248500  0.24318600  0.59475800  1
  N  538  1  0.19253300  0.26948900  0.83260600  1
  N  541  1  0.23946900  0.22293100  0.81150900  1
  N  545  1  0.14336100  0.31772500  0.79869600  1
  N  546  1  0.28859700  0.17464300  0.84541200  1
  N  547  1  0.21793300  0.24481000  0.86219600  1
  N  548  1  0.21420600  0.24777300  0.78192400  1
  N  550  1  0.19169900  0.22592000  0.33288100  1
  N  553  1  0.23849600  0.27130900  0.31106600  1
  N  557  1  0.13636500  0.18164300  0.30034000  1
  N  558  1  0.29066000  0.31810800  0.34448600  1
  N  559  1  0.21937100  0.24943700  0.36213200  1
  N  560  1  0.21239600  0.25040100  0.28196100  1
  N  562  1  0.25114500  0.77112900  0.07118300  1
  N  565  1  0.18611800  0.72769700  0.07471900  1
  N  569  1  0.32056800  0.70404600  0.06755100  1
  N  570  1  0.11665100  0.79372200  0.08000300  1
  N  571  1  0.21804700  0.82946400  0.07334400  1
  N  572  1  0.22209800  0.66909200  0.07268100  1
  N  574  1  0.69568100  0.28033000  0.57136300  1
  N  577  1  0.73909600  0.21528800  0.57488600  1
  N  581  1  0.76279100  0.34973200  0.56772000  1
  N  582  1  0.67307400  0.14583000  0.58016400  1
  N  583  1  0.63733400  0.24724600  0.57352400  1
  N  584  1  0.79770600  0.25125200  0.57284700  1
  N  588  1  0.41878300  0.52758600  0.10862500  1
  N  592  1  0.41842300  0.43837700  0.10790700  1
  N  598  1  0.41787000  0.43906700  0.15250000  1
  N  604  1  0.41808400  0.52825800  0.15322300  1
  N  710  1  0.37791300  0.47723500  0.60867200  1
  N  714  1  0.46713300  0.47698300  0.60795000  1
  N  720  1  0.46645100  0.47706800  0.65253500  1
  N  726  1  0.37723100  0.47718200  0.65325700  1
  N  830  1  0.39727900  0.50348500  0.89110500  1
  N  833  1  0.44421500  0.45692700  0.87000800  1
  N  837  1  0.34810700  0.55172100  0.85719500  1
  N  838  1  0.49334300  0.40863900  0.90391100  1
  N  839  1  0.42267900  0.47880600  0.92069500  1
  N  840  1  0.41895200  0.48176900  0.84042300  1
  N  842  1  0.39644500  0.45991600  0.39138000  1
  N  845  1  0.44324200  0.50530500  0.36956500  1
  N  849  1  0.34111100  0.41563900  0.35883900  1
  N  850  1  0.49540600  0.55210400  0.40298500  1
  N  851  1  0.42411700  0.48343300  0.42063100  1
  N  852  1  0.41714200  0.48439700  0.34046000  1
  N  854  1  0.45589100  0.00512489  0.12968200  1
  N  857  1  0.39086400  0.96169300  0.13321800  1
  N  861  1  0.52531400  0.93804200  0.12605000  1
  N  862  1  0.32139700  0.02771790  0.13850200  1
  N  863  1  0.42279300  0.06345990  0.13184300  1
  N  864  1  0.42684400  0.90308800  0.13118000  1
  N  866  1  0.90042700  0.51432600  0.62986200  1
  N  869  1  0.94384200  0.44928400  0.63338500  1
  N  873  1  0.96753700  0.58372800  0.62621900  1
  N  874  1  0.87782000  0.37982600  0.63866300  1
  N  875  1  0.84208000  0.48124200  0.63202300  1
  N  876  1  0.00245203  0.48524800  0.63134600  1
