# generated using pymatgen
data_H9C18N2O3
_symmetry_space_group_name_H-M   'P 1'
_cell_length_a   44.78350000
_cell_length_b   44.78350000
_cell_length_c   44.78350000
_cell_angle_alpha   90.00000000
_cell_angle_beta   90.00000000
_cell_angle_gamma   90.00000000
_symmetry_Int_Tables_number   1
_chemical_formula_structural   H9C18N2O3
_chemical_formula_sum   'H432 C864 N96 O144'
_cell_volume   89816.08010591
_cell_formula_units_Z   48
loop_
 _symmetry_equiv_pos_site_id
 _symmetry_equiv_pos_as_xyz
  1  'x, y, z'
loop_
 _atom_site_type_symbol
 _atom_site_label
 _atom_site_symmetry_multiplicity
 _atom_site_fract_x
 _atom_site_fract_y
 _atom_site_fract_z
 _atom_site_occupancy
  H  7  1  0.09131900  0.35614200  0.34943500  1
  H  16  1  0.17469800  0.39471000  0.39818000  1
  H  17  1  0.07323500  0.28130500  0.42455200  1
  H  18  1  0.17568200  0.47896400  0.32782400  1
  H  19  1  0.14843200  0.36203500  0.42396400  1
  H  20  1  0.09945600  0.40453300  0.34255700  1
  H  27  1  0.41728800  0.65244100  0.84921200  1
  H  36  1  0.33419700  0.61368100  0.89843400  1
  H  37  1  0.43533400  0.72776400  0.92389800  1
  H  38  1  0.31655200  0.55766300  0.80874700  1
  H  39  1  0.36025800  0.64685000  0.92385200  1
  H  40  1  0.40949900  0.60387600  0.84289100  1
  H  47  1  0.91732500  0.85611500  0.15936100  1
  H  56  1  0.83423800  0.89501700  0.11017100  1
  H  57  1  0.93532400  0.78093300  0.08450700  1
  H  58  1  0.81663600  0.95089900  0.19999600  1
  H  59  1  0.86023700  0.86178600  0.08478800  1
  H  60  1  0.90948700  0.90463500  0.16581600  1
  H  67  1  0.59130300  0.15243200  0.65933000  1
  H  76  1  0.67438200  0.11353600  0.61015300  1
  H  77  1  0.57337000  0.22768000  0.58451700  1
  H  78  1  0.69199200  0.05762000  0.69989000  1
  H  79  1  0.64832100  0.14666600  0.58469100  1
  H  80  1  0.59905300  0.10385700  0.66568700  1
  H  87  1  0.34935900  0.09138600  0.35612900  1
  H  96  1  0.39812900  0.17475300  0.39462500  1
  H  97  1  0.42442200  0.07327000  0.28123300  1
  H  98  1  0.32787500  0.17574800  0.47896200  1
  H  99  1  0.42395800  0.14841200  0.36202800  1
  H  100  1  0.34259700  0.09946600  0.40457500  1
  H  107  1  0.84923300  0.41726800  0.65247900  1
  H  116  1  0.89807200  0.33388000  0.61407900  1
  H  117  1  0.92417100  0.43545700  0.72748200  1
  H  118  1  0.82796100  0.33289900  0.52961500  1
  H  119  1  0.92382200  0.36019500  0.64677600  1
  H  120  1  0.84251400  0.40915100  0.60405100  1
  H  127  1  0.15935800  0.91734000  0.85609000  1
  H  136  1  0.11017800  0.83424900  0.89499900  1
  H  137  1  0.08448600  0.93533300  0.78091700  1
  H  138  1  0.19999700  0.81672700  0.95092000  1
  H  139  1  0.08478300  0.86025400  0.86177500  1
  H  140  1  0.16577800  0.90952900  0.90462100  1
  H  147  1  0.65928800  0.59123600  0.15245300  1
  H  156  1  0.61013800  0.67433800  0.11351200  1
  H  157  1  0.58444100  0.57333400  0.22766600  1
  H  158  1  0.69988100  0.69196000  0.05762500  1
  H  159  1  0.58473300  0.64835900  0.14673900  1
  H  160  1  0.66571400  0.59903300  0.10391800  1
  H  167  1  0.35608900  0.34937600  0.09137600  1
  H  176  1  0.39466300  0.39816200  0.17471800  1
  H  177  1  0.28125300  0.42448500  0.07324200  1
  H  178  1  0.47894700  0.32784400  0.17570600  1
  H  179  1  0.36202600  0.42396600  0.14840900  1
  H  180  1  0.40450200  0.34253900  0.09947900  1
  H  187  1  0.65241900  0.84919900  0.41731400  1
  H  196  1  0.61368400  0.89845600  0.33423500  1
  H  197  1  0.72774600  0.92387800  0.43537700  1
  H  198  1  0.55769700  0.80877600  0.31651200  1
  H  199  1  0.64681600  0.92387400  0.36033100  1
  H  200  1  0.60384100  0.84289300  0.40951900  1
  H  207  1  0.85615500  0.15929200  0.91736000  1
  H  216  1  0.89509800  0.11007700  0.83429800  1
  H  217  1  0.78096600  0.08444800  0.93535600  1
  H  218  1  0.95096200  0.19987900  0.81669200  1
  H  219  1  0.86182400  0.08471900  0.86027500  1
  H  220  1  0.90468200  0.16571600  0.90955600  1
  H  227  1  0.15244100  0.65931000  0.59126900  1
  H  236  1  0.11352600  0.61015300  0.67436200  1
  H  237  1  0.22769300  0.58449700  0.57336500  1
  H  238  1  0.05759300  0.69989000  0.69193600  1
  H  239  1  0.14673300  0.58473100  0.64836400  1
  H  240  1  0.10389100  0.66569400  0.59903500  1
  H  247  1  0.10544500  0.34138200  0.90905600  1
  H  256  1  0.14574600  0.42465900  0.86112500  1
  H  257  1  0.03204700  0.32392300  0.83176600  1
  H  258  1  0.22371900  0.42803700  0.93925200  1
  H  259  1  0.11220900  0.39923200  0.83526800  1
  H  260  1  0.15409500  0.34925100  0.91630200  1
  H  267  1  0.40305500  0.66722100  0.40907700  1
  H  276  1  0.36263400  0.58407900  0.36089900  1
  H  277  1  0.47666000  0.68466500  0.33197900  1
  H  278  1  0.28483900  0.58074300  0.43950800  1
  H  279  1  0.39638000  0.60943200  0.33522400  1
  H  280  1  0.35439600  0.65940600  0.41620700  1
  H  287  1  0.60524300  0.16706200  0.09970300  1
  H  296  1  0.64578900  0.08389400  0.14755000  1
  H  297  1  0.53252700  0.18485100  0.17770800  1
  H  298  1  0.72368600  0.08062000  0.06937400  1
  H  299  1  0.61239500  0.10938200  0.17354900  1
  H  300  1  0.65398600  0.15933800  0.09239000  1
  H  307  1  0.90313400  0.84143500  0.59938600  1
  H  316  1  0.86307700  0.92476300  0.64739900  1
  H  317  1  0.97666600  0.82389300  0.67654400  1
  H  318  1  0.78473300  0.92812100  0.56965600  1
  H  319  1  0.89647500  0.89919300  0.67326800  1
  H  320  1  0.85443100  0.84930800  0.59230800  1
  H  327  1  0.84143300  0.59944900  0.90314300  1
  H  336  1  0.92474700  0.64743900  0.86303700  1
  H  337  1  0.82382600  0.67670900  0.97652700  1
  H  338  1  0.92827100  0.56957800  0.78487000  1
  H  339  1  0.89921300  0.67329000  0.89644900  1
  H  340  1  0.84937800  0.59225600  0.85446900  1
  H  347  1  0.16704200  0.09962500  0.60524100  1
  H  356  1  0.08385300  0.14754000  0.64562600  1
  H  357  1  0.18485900  0.17752800  0.53241000  1
  H  358  1  0.08055300  0.06959000  0.72375800  1
  H  359  1  0.10943400  0.17355400  0.61234800  1
  H  360  1  0.15927900  0.09237000  0.65401800  1
  H  367  1  0.66714500  0.40885400  0.40320900  1
  H  376  1  0.58410600  0.36077400  0.36254900  1
  H  377  1  0.68490600  0.33101700  0.47612000  1
  H  378  1  0.58067800  0.43959500  0.28502500  1
  H  379  1  0.60945700  0.33499600  0.39620800  1
  H  380  1  0.65939700  0.41612700  0.35449400  1
  H  387  1  0.34139400  0.90914500  0.10549700  1
  H  396  1  0.42468100  0.86118600  0.14572900  1
  H  397  1  0.32394100  0.83191100  0.03203300  1
  H  398  1  0.42795900  0.93913800  0.22389100  1
  H  399  1  0.39920700  0.83531900  0.11225000  1
  H  400  1  0.34924500  0.91632600  0.15416900  1
  H  407  1  0.09974700  0.60522300  0.16705600  1
  H  416  1  0.14754800  0.64582300  0.08388200  1
  H  417  1  0.17781700  0.53257800  0.18480900  1
  H  418  1  0.06934200  0.72368600  0.08063300  1
  H  419  1  0.17355700  0.61243100  0.10934700  1
  H  420  1  0.09238600  0.65396600  0.15933000  1
  H  427  1  0.59937000  0.90314700  0.84146800  1
  H  436  1  0.64739300  0.86306800  0.92478000  1
  H  437  1  0.67651000  0.97669200  0.82394000  1
  H  438  1  0.56966100  0.78472000  0.92813400  1
  H  439  1  0.67326400  0.89646400  0.89920900  1
  H  440  1  0.59229000  0.85444000  0.84933100  1
  H  447  1  0.90897600  0.10561900  0.34138500  1
  H  456  1  0.86085100  0.14611300  0.42452900  1
  H  457  1  0.83180000  0.03211100  0.32392300  1
  H  458  1  0.93974600  0.22362300  0.42796800  1
  H  459  1  0.83518500  0.11229700  0.39923400  1
  H  460  1  0.91619700  0.15423600  0.34923800  1
  H  467  1  0.40906100  0.40303200  0.66724800  1
  H  476  1  0.36089600  0.36262000  0.58409200  1
  H  477  1  0.33195000  0.47663800  0.68468300  1
  H  478  1  0.43953500  0.28484600  0.58075000  1
  H  479  1  0.33523100  0.39638300  0.60943200  1
  H  480  1  0.41620200  0.35438300  0.65942200  1
  H  487  1  0.17368500  0.47909200  0.38803400  1
  H  492  1  0.23968700  0.41645500  0.36557400  1
  H  497  1  0.27736300  0.58555700  0.38241300  1
  H  498  1  0.34337900  0.51909100  0.38633400  1
  H  500  1  0.21788800  0.58510800  0.36712200  1
  H  502  1  0.17141800  0.53748600  0.37295200  1
  H  509  1  0.33557700  0.52804700  0.88663700  1
  H  514  1  0.26969800  0.59202600  0.86802500  1
  H  519  1  0.23058700  0.42282500  0.88147400  1
  H  520  1  0.16540200  0.48991500  0.88793700  1
  H  522  1  0.28982100  0.42293500  0.86496400  1
  H  524  1  0.33690800  0.47036100  0.87061300  1
  H  531  1  0.83566500  0.98070100  0.12207800  1
  H  536  1  0.76980400  0.91662800  0.14048400  1
  H  541  1  0.73053300  0.08581600  0.12712300  1
  H  542  1  0.66542800  0.01869200  0.12059800  1
  H  544  1  0.78977100  0.08573400  0.14364000  1
  H  546  1  0.83687500  0.03850500  0.13798300  1
  H  553  1  0.67296900  0.02770200  0.62228300  1
  H  558  1  0.73875200  0.09203500  0.64015800  1
  H  563  1  0.77832500  0.92287600  0.62756400  1
  H  564  1  0.84321900  0.99009900  0.62017500  1
  H  566  1  0.71912000  0.92292900  0.64426200  1
  H  568  1  0.67192400  0.97004900  0.63851400  1
  H  575  1  0.38809400  0.17372400  0.47901400  1
  H  580  1  0.36551000  0.23973600  0.41643200  1
  H  585  1  0.38245600  0.27733900  0.58553900  1
  H  586  1  0.38627200  0.34339900  0.51910900  1
  H  588  1  0.36720900  0.21785200  0.58506400  1
  H  590  1  0.37303900  0.17140300  0.53737400  1
  H  597  1  0.88817800  0.33493400  0.52976200  1
  H  602  1  0.86533400  0.26892700  0.59221400  1
  H  607  1  0.88264400  0.23137300  0.42312900  1
  H  608  1  0.88607600  0.16525100  0.48953300  1
  H  610  1  0.86749400  0.29086600  0.42356900  1
  H  612  1  0.87326100  0.33732100  0.47134800  1
  H  619  1  0.12206600  0.83569600  0.98070300  1
  H  624  1  0.14049200  0.76984200  0.91663000  1
  H  629  1  0.12708000  0.73055700  0.08581500  1
  H  630  1  0.12059900  0.66545300  0.01868700  1
  H  632  1  0.14359400  0.78979500  0.08574300  1
  H  634  1  0.13795200  0.83690200  0.03851400  1
  H  641  1  0.62233000  0.67292900  0.02767000  1
  H  646  1  0.64012600  0.73870100  0.09203600  1
  H  651  1  0.62757900  0.77832200  0.92287800  1
  H  652  1  0.62015000  0.84319200  0.99012100  1
  H  654  1  0.64430200  0.71912900  0.92291600  1
  H  656  1  0.63857500  0.67192600  0.96998000  1
  H  663  1  0.47904900  0.38806000  0.17370500  1
  H  668  1  0.41643900  0.36553400  0.23970700  1
  H  673  1  0.58554200  0.38251600  0.27737900  1
  H  674  1  0.51906200  0.38620500  0.34342600  1
  H  676  1  0.58509500  0.36725400  0.21790300  1
  H  678  1  0.53747000  0.37302100  0.17143500  1
  H  685  1  0.52804100  0.88660300  0.33560400  1
  H  690  1  0.59205700  0.86814600  0.26971500  1
  H  695  1  0.42285200  0.88132200  0.23059600  1
  H  696  1  0.48992400  0.88809500  0.16544100  1
  H  698  1  0.42298400  0.86478100  0.28981900  1
  H  700  1  0.47041900  0.87047000  0.33691200  1
  H  707  1  0.98090600  0.12220200  0.83569000  1
  H  712  1  0.91660300  0.14013100  0.76991800  1
  H  717  1  0.08575100  0.12748200  0.73030300  1
  H  718  1  0.01852100  0.12026900  0.66540100  1
  H  720  1  0.08572500  0.14412100  0.78951200  1
  H  722  1  0.03865600  0.13840500  0.83670100  1
  H  729  1  0.02768300  0.62227400  0.67294900  1
  H  734  1  0.09203400  0.64018500  0.73871000  1
  H  739  1  0.92289100  0.62749000  0.77835400  1
  H  740  1  0.99016800  0.62023500  0.84322600  1
  H  742  1  0.92290700  0.64416400  0.71914400  1
  H  744  1  0.96997300  0.63844700  0.67193700  1
  H  751  1  0.67172100  0.98112700  0.88293900  1
  H  756  1  0.73872800  0.91690700  0.86982300  1
  H  761  1  0.77631300  0.08688000  0.87710000  1
  H  762  1  0.84138800  0.02038600  0.88881400  1
  H  764  1  0.71956400  0.08677800  0.89857200  1
  H  766  1  0.67106600  0.03804400  0.86188700  1
  H  773  1  0.83686900  0.02774100  0.38290700  1
  H  778  1  0.76969200  0.09180700  0.36988000  1
  H  783  1  0.73245500  0.92175700  0.37709700  1
  H  784  1  0.66724600  0.98807800  0.38883700  1
  H  786  1  0.78923300  0.92196500  0.39856400  1
  H  788  1  0.83760300  0.97080900  0.36185000  1
  H  795  1  0.33687600  0.48106600  0.62577500  1
  H  800  1  0.26982300  0.41687700  0.63869500  1
  H  805  1  0.23224000  0.58684100  0.63169500  1
  H  806  1  0.16721100  0.52041700  0.61973700  1
  H  808  1  0.28903300  0.58677900  0.61022700  1
  H  810  1  0.33750800  0.53797900  0.64685000  1
  H  817  1  0.17212100  0.52798000  0.12579100  1
  H  822  1  0.23929400  0.59211800  0.13869100  1
  H  827  1  0.27661300  0.42207300  0.13159700  1
  H  828  1  0.34174000  0.48843400  0.11969000  1
  H  830  1  0.21981200  0.42223100  0.11016000  1
  H  832  1  0.17142000  0.47109100  0.14681100  1
  H  839  1  0.88285200  0.67176300  0.98101100  1
  H  844  1  0.86978900  0.73886100  0.91686000  1
  H  849  1  0.87707500  0.77625500  0.08688200  1
  H  850  1  0.88875600  0.84140600  0.02045300  1
  H  852  1  0.89853200  0.71949500  0.08671500  1
  H  854  1  0.86180200  0.67106600  0.03793300  1
  H  861  1  0.38294900  0.83691100  0.02771100  1
  H  866  1  0.36974800  0.76977900  0.09176600  1
  H  871  1  0.37706700  0.73250200  0.92173700  1
  H  872  1  0.38869900  0.66728800  0.98807200  1
  H  874  1  0.39860000  0.78925300  0.92195800  1
  H  876  1  0.36191200  0.83767500  0.97077500  1
  H  883  1  0.62589800  0.33663500  0.48069500  1
  H  888  1  0.63876000  0.26941000  0.41665400  1
  H  893  1  0.63166100  0.23222200  0.58670700  1
  H  894  1  0.61970200  0.16704800  0.52042600  1
  H  896  1  0.61023400  0.28903300  0.58651500  1
  H  898  1  0.64692400  0.33736300  0.53761800  1
  H  905  1  0.12588100  0.17205400  0.52782800  1
  H  910  1  0.13879200  0.23914400  0.59202800  1
  H  915  1  0.13160400  0.27665800  0.42203000  1
  H  916  1  0.11974300  0.34171100  0.48847000  1
  H  918  1  0.11016300  0.21985700  0.42214400  1
  H  920  1  0.14685100  0.17140800  0.47092100  1
  H  927  1  0.98112000  0.88289400  0.67171000  1
  H  932  1  0.91692000  0.86980900  0.73874100  1
  H  937  1  0.08690800  0.87706000  0.77626600  1
  H  938  1  0.02044300  0.88876500  0.84137500  1
  H  940  1  0.08679000  0.89853600  0.71951500  1
  H  942  1  0.03803500  0.86183800  0.67104200  1
  H  949  1  0.02766200  0.38291600  0.83682400  1
  H  954  1  0.09180600  0.36983300  0.76973700  1
  H  959  1  0.92179700  0.37710800  0.73228500  1
  H  960  1  0.98819700  0.38876400  0.66714500  1
  H  962  1  0.92195400  0.39861100  0.78904300  1
  H  964  1  0.97071700  0.36190300  0.83750300  1
  H  971  1  0.48106800  0.62575700  0.33687200  1
  H  976  1  0.41687500  0.63870000  0.26982700  1
  H  981  1  0.58683200  0.63167200  0.23222200  1
  H  982  1  0.52039700  0.61973500  0.16720200  1
  H  984  1  0.58677400  0.61020200  0.28901300  1
  H  986  1  0.53798600  0.64682500  0.33749900  1
  H  993  1  0.52792000  0.12584900  0.17208600  1
  H  998  1  0.59207300  0.13872000  0.23924700  1
  H  1003  1  0.42203300  0.13161600  0.27660200  1
  H  1004  1  0.48840500  0.11969900  0.34171300  1
  H  1006  1  0.42218200  0.11019400  0.21979400  1
  H  1008  1  0.47102800  0.14686900  0.17140400  1
  H  1015  1  0.02183800  0.34095400  0.37581500  1
  H  1020  1  0.08644100  0.27374100  0.36472400  1
  H  1025  1  0.91797400  0.23387000  0.37082400  1
  H  1026  1  0.98836200  0.17182600  0.37158600  1
  H  1028  1  0.91487900  0.29252500  0.34801900  1
  H  1030  1  0.96348400  0.34307100  0.35052000  1
  H  1037  1  0.48663900  0.66771300  0.87548500  1
  H  1042  1  0.42219300  0.73501400  0.86412900  1
  H  1047  1  0.59070900  0.77459800  0.87093700  1
  H  1048  1  0.52041500  0.83677500  0.87134800  1
  H  1050  1  0.59387500  0.71603200  0.84813600  1
  H  1052  1  0.54509800  0.66547500  0.85029300  1
  H  1059  1  0.98678100  0.84079900  0.13312200  1
  H  1064  1  0.92218600  0.77358400  0.14414700  1
  H  1069  1  0.09061400  0.73365200  0.13790300  1
  H  1070  1  0.02023400  0.67166300  0.13710300  1
  H  1072  1  0.09380100  0.79223200  0.16076600  1
  H  1074  1  0.04517400  0.84286000  0.15848200  1
  H  1081  1  0.52192200  0.16770600  0.63306100  1
  H  1086  1  0.58641200  0.23501500  0.64428400  1
  H  1091  1  0.41789300  0.27465500  0.63788200  1
  H  1092  1  0.48821100  0.33677100  0.63721200  1
  H  1094  1  0.41480200  0.21603100  0.66067600  1
  H  1096  1  0.46350800  0.16551000  0.65836300  1
  H  1103  1  0.37566700  0.02191200  0.34093600  1
  H  1108  1  0.36461200  0.08647800  0.27368600  1
  H  1113  1  0.37076400  0.91798600  0.23392300  1
  H  1114  1  0.37148500  0.98834200  0.17182300  1
  H  1116  1  0.34792100  0.91490600  0.29255000  1
  H  1118  1  0.35035900  0.96356700  0.34308600  1
  H  1125  1  0.87561300  0.48672800  0.66765400  1
  H  1130  1  0.86437200  0.42218900  0.73488700  1
  H  1135  1  0.87103500  0.59066200  0.77468700  1
  H  1136  1  0.87152200  0.52030100  0.83677000  1
  H  1138  1  0.84821200  0.59387100  0.71611900  1
  H  1140  1  0.85039400  0.54516700  0.66551800  1
  H  1147  1  0.13313500  0.98678100  0.84081900  1
  H  1152  1  0.14411100  0.92225000  0.77353500  1
  H  1157  1  0.13781800  0.09073100  0.73377700  1
  H  1158  1  0.13704900  0.02040300  0.67168700  1
  H  1160  1  0.16073500  0.09385200  0.79234500  1
  H  1162  1  0.15849700  0.04516600  0.84292700  1
  H  1169  1  0.63296300  0.52184400  0.16775300  1
  H  1174  1  0.64422400  0.58639000  0.23500400  1
  H  1179  1  0.63782200  0.41791300  0.27479800  1
  H  1180  1  0.63716100  0.48826700  0.33683600  1
  H  1182  1  0.66058500  0.41476900  0.21616600  1
  H  1184  1  0.65825100  0.46342100  0.16560700  1
  H  1191  1  0.34088700  0.37573200  0.02187600  1
  H  1196  1  0.27368600  0.36465700  0.08649100  1
  H  1201  1  0.23378500  0.37082400  0.91803000  1
  H  1202  1  0.17174000  0.37151200  0.98841500  1
  H  1204  1  0.29241800  0.34800800  0.91490600  1
  H  1206  1  0.34298400  0.35043900  0.96352000  1
  H  1213  1  0.66769500  0.87547000  0.48668400  1
  H  1218  1  0.73498300  0.86409700  0.42222700  1
  H  1223  1  0.77460200  0.87092800  0.59073300  1
  H  1224  1  0.83676600  0.87132300  0.52042600  1
  H  1226  1  0.71603200  0.84813200  0.59391300  1
  H  1228  1  0.66547100  0.85028200  0.54514300  1
  H  1235  1  0.84082800  0.13307100  0.98681900  1
  H  1240  1  0.77362400  0.14408300  0.92221000  1
  H  1245  1  0.73366500  0.13789400  0.09063400  1
  H  1246  1  0.67168700  0.13709000  0.02024400  1
  H  1248  1  0.79224700  0.16075400  0.09382300  1
  H  1250  1  0.84288400  0.15845100  0.04520400  1
  H  1257  1  0.16771300  0.63304300  0.52190200  1
  H  1262  1  0.23502000  0.64426000  0.58639900  1
  H  1267  1  0.27466800  0.63788200  0.41788200  1
  H  1268  1  0.33677600  0.63719500  0.48820900  1
  H  1270  1  0.21604800  0.66068500  0.41478900  1
  H  1272  1  0.16552000  0.65836300  0.46349400  1
  H  1279  1  0.09159900  0.27302900  0.88642700  1
  H  1284  1  0.02211400  0.33613700  0.88954200  1
  H  1289  1  0.98698900  0.16662100  0.89105400  1
  H  1290  1  0.92309000  0.23511300  0.88540200  1
  H  1292  1  0.05209000  0.16854700  0.87964100  1
  H  1294  1  0.09317100  0.21653900  0.91701400  1
  H  1301  1  0.41694800  0.73552100  0.38643000  1
  H  1306  1  0.48644300  0.67245300  0.38973500  1
  H  1311  1  0.52151100  0.84201100  0.39086700  1
  H  1312  1  0.58545500  0.77354200  0.38546300  1
  H  1314  1  0.45631300  0.83996800  0.37938800  1
  H  1316  1  0.41534100  0.79210400  0.41693000  1
  H  1323  1  0.59115800  0.23556200  0.12155400  1
  H  1328  1  0.52206500  0.17195600  0.12046500  1
  H  1333  1  0.48564100  0.34120600  0.11629000  1
  H  1334  1  0.42259300  0.27240600  0.12568100  1
  H  1336  1  0.54862800  0.34017200  0.12842500  1
  H  1338  1  0.59193500  0.29158300  0.09024200  1
  H  1345  1  0.91698300  0.77303500  0.62208000  1
  H  1350  1  0.98647700  0.83613400  0.61875000  1
  H  1355  1  0.02160100  0.66666667  0.61757600  1
  H  1356  1  0.08547500  0.73511200  0.62306000  1
  H  1358  1  0.95643000  0.66858600  0.62903800  1
  H  1360  1  0.91540400  0.71646000  0.59154200  1
  H  1367  1  0.77301700  0.62211500  0.91699000  1
  H  1372  1  0.83614700  0.61890700  0.98645000  1
  H  1377  1  0.66666667  0.61754200  0.02163000  1
  H  1378  1  0.73515300  0.62311600  0.08550900  1
  H  1380  1  0.66855900  0.62893700  0.95646600  1
  H  1382  1  0.71649600  0.59157100  0.91542900  1
  H  1389  1  0.23549100  0.12149500  0.59116900  1
  H  1394  1  0.17195500  0.12016100  0.52202300  1
  H  1399  1  0.34128900  0.11635200  0.48581700  1
  H  1400  1  0.27251600  0.12550300  0.42264500  1
  H  1402  1  0.34011600  0.12853800  0.54882000  1
  H  1404  1  0.29157200  0.09029400  0.59206200  1
  H  1411  1  0.73563300  0.38704900  0.41737000  1
  H  1416  1  0.67202900  0.38826600  0.48646000  1
  H  1421  1  0.84130500  0.39229400  0.52286200  1
  H  1422  1  0.77249400  0.38301600  0.58595000  1
  H  1424  1  0.84022900  0.38013100  0.45987500  1
  H  1426  1  0.79166200  0.41833300  0.41656000  1
  H  1433  1  0.27301400  0.88642000  0.09162700  1
  H  1438  1  0.33617300  0.88970700  0.02218600  1
  H  1443  1  0.16669200  0.89095300  0.98690600  1
  H  1444  1  0.23523400  0.88546700  0.92311200  1
  H  1446  1  0.16860500  0.87943800  0.05204800  1
  H  1448  1  0.21643600  0.91695800  0.09315300  1
  H  1455  1  0.12161400  0.59113300  0.23552400  1
  H  1460  1  0.12043700  0.52203400  0.17191500  1
  H  1465  1  0.11631200  0.48568100  0.34119700  1
  H  1466  1  0.12561600  0.42256900  0.27239300  1
  H  1468  1  0.12844300  0.54867500  0.34013900  1
  H  1470  1  0.09035600  0.59195200  0.29153400  1
  H  1477  1  0.62205100  0.91698100  0.77312400  1
  H  1482  1  0.61874600  0.98649300  0.83617200  1
  H  1487  1  0.61759400  0.02151800  0.66666667  1
  H  1488  1  0.62305300  0.08546700  0.73507000  1
  H  1490  1  0.62906400  0.95635500  0.66864600  1
  H  1492  1  0.59154600  0.91536000  0.71654100  1
  H  1499  1  0.88633300  0.09169400  0.27298500  1
  H  1504  1  0.88945900  0.02229800  0.33617500  1
  H  1509  1  0.89094900  0.98689300  0.16672800  1
  H  1510  1  0.88533100  0.92312600  0.23527000  1
  H  1512  1  0.87945300  0.05203700  0.16858000  1
  H  1514  1  0.91692700  0.09316400  0.21644600  1
  H  1521  1  0.38638600  0.41694800  0.73559900  1
  H  1526  1  0.38974000  0.48642500  0.67248400  1
  H  1531  1  0.39083800  0.52158700  0.84201300  1
  H  1532  1  0.38544100  0.58545900  0.77349900  1
  H  1534  1  0.37935600  0.45638700  0.84001700  1
  H  1536  1  0.41689900  0.41538300  0.79218700  1
  C  1  1  0.12047400  0.36693400  0.38561300  1
  C  2  1  0.09648400  0.35158300  0.37117700  1
  C  3  1  0.07943700  0.32913700  0.38535000  1
  C  4  1  0.08689300  0.32086800  0.41483800  1
  C  5  1  0.11354500  0.33140600  0.42819300  1
  C  6  1  0.12956100  0.35457700  0.41365700  1
  C  9  1  0.13575200  0.39189400  0.37079500  1
  C  10  1  0.12137200  0.40840000  0.34754500  1
  C  11  1  0.13577200  0.43120100  0.33116700  1
  C  12  1  0.16548200  0.43871300  0.33862500  1
  C  13  1  0.17914700  0.42653000  0.36441300  1
  C  14  1  0.16426900  0.40315500  0.37979600  1
  C  21  1  0.38818500  0.64181900  0.88548500  1
  C  22  1  0.41212100  0.65714200  0.87092400  1
  C  23  1  0.42908200  0.67975300  0.88493100  1
  C  24  1  0.42167500  0.68814900  0.91439300  1
  C  25  1  0.39506300  0.67762000  0.92782800  1
  C  26  1  0.37908600  0.65431500  0.91346800  1
  C  29  1  0.37303500  0.61666500  0.87087200  1
  C  30  1  0.38756200  0.60001800  0.84779400  1
  C  31  1  0.37341400  0.57675900  0.83184000  1
  C  32  1  0.34358200  0.56956000  0.83899700  1
  C  33  1  0.33007500  0.58146200  0.86498800  1
  C  34  1  0.34462500  0.60524500  0.88004500  1
  C  41  1  0.88819100  0.86678800  0.12312800  1
  C  42  1  0.91213500  0.85144100  0.13764800  1
  C  43  1  0.92911900  0.82888100  0.12358700  1
  C  44  1  0.92169000  0.82052800  0.09411500  1
  C  45  1  0.89506900  0.83107000  0.08070100  1
  C  46  1  0.87908500  0.85432800  0.09513500  1
  C  49  1  0.87303600  0.89192000  0.13778100  1
  C  50  1  0.88756400  0.90853100  0.16088200  1
  C  51  1  0.87341100  0.93174100  0.17689600  1
  C  52  1  0.84361000  0.93901100  0.16969100  1
  C  53  1  0.83009800  0.92717400  0.14367100  1
  C  54  1  0.84463700  0.90338200  0.12860600  1
  C  61  1  0.62040700  0.14174100  0.62307800  1
  C  62  1  0.59647900  0.15710500  0.63761200  1
  C  63  1  0.57954400  0.17972600  0.62358200  1
  C  64  1  0.58695300  0.18806200  0.59410100  1
  C  65  1  0.61353400  0.17745100  0.58067600  1
  C  66  1  0.62951100  0.15417300  0.59507400  1
  C  69  1  0.63554400  0.11659800  0.63771900  1
  C  70  1  0.62099400  0.09998500  0.66080400  1
  C  71  1  0.63512000  0.07673500  0.67678700  1
  C  72  1  0.66494800  0.06950400  0.66964600  1
  C  73  1  0.67847500  0.08136400  0.64364600  1
  C  74  1  0.66395000  0.10514400  0.62855700  1
  C  81  1  0.38556800  0.12050400  0.36690500  1
  C  82  1  0.37110100  0.09653600  0.35154900  1
  C  83  1  0.38524000  0.07949200  0.32908300  1
  C  84  1  0.41473500  0.08692500  0.32080300  1
  C  85  1  0.42812900  0.11355000  0.33135900  1
  C  86  1  0.41362100  0.12956500  0.35455000  1
  C  89  1  0.37077300  0.13578400  0.39187400  1
  C  90  1  0.34755700  0.12139400  0.40841800  1
  C  91  1  0.33117100  0.13579300  0.43121900  1
  C  92  1  0.33863600  0.16550900  0.43870600  1
  C  93  1  0.36440000  0.17919100  0.42648700  1
  C  94  1  0.37976500  0.16431400  0.40310400  1
  C  101  1  0.88545800  0.38813000  0.64178300  1
  C  102  1  0.87097000  0.41212300  0.65708600  1
  C  103  1  0.88506900  0.42914500  0.67959600  1
  C  104  1  0.91455800  0.42175100  0.68791000  1
  C  105  1  0.92794000  0.39510100  0.67741500  1
  C  106  1  0.91348200  0.37905900  0.65421000  1
  C  109  1  0.87069800  0.37284700  0.61679000  1
  C  110  1  0.84748000  0.38722100  0.60022600  1
  C  111  1  0.83117000  0.37282700  0.57736200  1
  C  112  1  0.83861900  0.34310200  0.56990400  1
  C  113  1  0.86436100  0.32945200  0.58218500  1
  C  114  1  0.87972100  0.34431900  0.60557600  1
  C  121  1  0.12312400  0.88821100  0.86676800  1
  C  122  1  0.13764500  0.91215300  0.85141900  1
  C  123  1  0.12358300  0.92913500  0.82885700  1
  C  124  1  0.09410800  0.92170800  0.82051200  1
  C  125  1  0.08069400  0.89508900  0.83106100  1
  C  126  1  0.09513000  0.87910300  0.85431500  1
  C  129  1  0.13777100  0.87306000  0.89190400  1
  C  130  1  0.16085700  0.88760400  0.90852000  1
  C  131  1  0.17687700  0.87346900  0.93173800  1
  C  132  1  0.16966900  0.84367000  0.93901800  1
  C  133  1  0.14366300  0.83013800  0.92717600  1
  C  134  1  0.12860300  0.84466200  0.90337100  1
  C  141  1  0.62306900  0.62038300  0.14176500  1
  C  142  1  0.63757400  0.59643000  0.15711700  1
  C  143  1  0.62352000  0.57949000  0.17972200  1
  C  144  1  0.59404500  0.58692200  0.18805500  1
  C  145  1  0.58066000  0.61353900  0.17747500  1
  C  146  1  0.59508300  0.62952000  0.15421500  1
  C  149  1  0.63771900  0.63551800  0.11662100  1
  C  150  1  0.66081700  0.62096500  0.10002800  1
  C  151  1  0.67680300  0.63508200  0.07677400  1
  C  152  1  0.66965500  0.66490100  0.06951700  1
  C  153  1  0.64364600  0.67842600  0.08135600  1
  C  154  1  0.62855300  0.66391000  0.10514100  1
  C  161  1  0.36689400  0.38558000  0.12049300  1
  C  162  1  0.35152900  0.37112300  0.09652400  1
  C  163  1  0.32907900  0.38528300  0.07947200  1
  C  164  1  0.32081700  0.41478000  0.08690500  1
  C  165  1  0.33137400  0.42816200  0.11353600  1
  C  166  1  0.35455000  0.41363900  0.12955600  1
  C  169  1  0.39185900  0.37077500  0.13577500  1
  C  170  1  0.40836900  0.34752800  0.12139600  1
  C  171  1  0.43117400  0.33115500  0.13579800  1
  C  172  1  0.43868800  0.33862300  0.16550400  1
  C  173  1  0.42649900  0.36440900  0.17916700  1
  C  174  1  0.40311700  0.37978300  0.16429000  1
  C  181  1  0.64179700  0.88548700  0.38823000  1
  C  182  1  0.65711900  0.87091500  0.41215900  1
  C  183  1  0.67973000  0.88491300  0.42912700  1
  C  184  1  0.68812600  0.91438200  0.42173300  1
  C  185  1  0.67758900  0.92783300  0.39513700  1
  C  186  1  0.65428600  0.91347900  0.37914900  1
  C  189  1  0.61665100  0.87087700  0.37306400  1
  C  190  1  0.60000000  0.84779700  0.38757800  1
  C  191  1  0.57675500  0.83183800  0.37340800  1
  C  192  1  0.56957400  0.83900300  0.34357500  1
  C  193  1  0.58147300  0.86500600  0.33008600  1
  C  194  1  0.60524800  0.88006100  0.34465200  1
  C  201  1  0.86683500  0.12305200  0.88823800  1
  C  202  1  0.85148300  0.13757800  0.91217500  1
  C  203  1  0.82891900  0.12352000  0.92915700  1
  C  204  1  0.82056800  0.09404800  0.92173000  1
  C  205  1  0.83110800  0.08063500  0.89510900  1
  C  206  1  0.85437100  0.09506400  0.87912500  1
  C  209  1  0.89197600  0.13769500  0.87309200  1
  C  210  1  0.90858000  0.16078900  0.88763300  1
  C  211  1  0.93179200  0.17680700  0.87348900  1
  C  212  1  0.93908500  0.16959800  0.84369700  1
  C  213  1  0.92727000  0.14356700  0.83018500  1
  C  214  1  0.90345600  0.12851300  0.84470200  1
  C  221  1  0.14176200  0.62307800  0.62040300  1
  C  222  1  0.15711500  0.63759900  0.59645900  1
  C  223  1  0.17973200  0.62356000  0.57952600  1
  C  224  1  0.18807600  0.59408500  0.58695100  1
  C  225  1  0.17749000  0.58068500  0.61355900  1
  C  226  1  0.15421700  0.59509200  0.62953300  1
  C  229  1  0.11661000  0.63771900  0.63552900  1
  C  230  1  0.10000400  0.66080400  0.62097000  1
  C  231  1  0.07674100  0.67678300  0.63508000  1
  C  232  1  0.06949200  0.66964200  0.66490100  1
  C  233  1  0.08134900  0.64364300  0.67843500  1
  C  234  1  0.10514000  0.62855700  0.66392500  1
  C  241  1  0.11687300  0.37067900  0.87319700  1
  C  242  1  0.10127700  0.34661000  0.88724400  1
  C  243  1  0.07893400  0.32975300  0.87269000  1
  C  244  1  0.07133400  0.33724900  0.84302900  1
  C  245  1  0.08202400  0.36403400  0.83006900  1
  C  246  1  0.10482700  0.38009300  0.84513300  1
  C  249  1  0.14131300  0.38601900  0.88875200  1
  C  250  1  0.15732700  0.37146900  0.91222900  1
  C  251  1  0.17866100  0.38625600  0.93014800  1
  C  252  1  0.18507200  0.41651500  0.92400600  1
  C  253  1  0.17508500  0.42973400  0.89705800  1
  C  254  1  0.15291000  0.41455700  0.88022400  1
  C  261  1  0.39166700  0.63796500  0.37316000  1
  C  262  1  0.40725900  0.66200700  0.38727000  1
  C  263  1  0.42970700  0.67879700  0.37279600  1
  C  264  1  0.43734000  0.67134100  0.34313800  1
  C  265  1  0.42662800  0.64459000  0.33013100  1
  C  266  1  0.40376900  0.62855100  0.34512700  1
  C  269  1  0.36715500  0.62264900  0.38863000  1
  C  270  1  0.35115200  0.63719500  0.41212100  1
  C  271  1  0.32976400  0.62242100  0.42999300  1
  C  272  1  0.32336700  0.59216500  0.42384100  1
  C  273  1  0.33325200  0.57904400  0.39681400  1
  C  274  1  0.35548400  0.59416500  0.38000800  1
  C  281  1  0.61692400  0.13790700  0.13559200  1
  C  282  1  0.60123500  0.16192900  0.12157000  1
  C  283  1  0.57900300  0.17883100  0.13624100  1
  C  284  1  0.57168600  0.17147400  0.16600700  1
  C  285  1  0.58235100  0.14466600  0.17894600  1
  C  286  1  0.60501100  0.12854300  0.16372500  1
  C  289  1  0.64129400  0.12255000  0.11994900  1
  C  290  1  0.65724700  0.13711900  0.09644100  1
  C  291  1  0.67856900  0.12235900  0.07848200  1
  C  292  1  0.68502500  0.09210300  0.08460300  1
  C  293  1  0.67508100  0.07888100  0.11155900  1
  C  294  1  0.65291500  0.09401100  0.12844400  1
  C  301  1  0.89179100  0.87070900  0.63529200  1
  C  302  1  0.90734500  0.84664000  0.62119500  1
  C  303  1  0.92975300  0.82981500  0.63568700  1
  C  304  1  0.93736800  0.83725500  0.66535500  1
  C  305  1  0.92671000  0.86402600  0.67836400  1
  C  306  1  0.90387100  0.88008500  0.66335200  1
  C  309  1  0.86732800  0.88607200  0.61980200  1
  C  310  1  0.85123800  0.87153300  0.59636700  1
  C  311  1  0.82979900  0.88631500  0.57855700  1
  C  312  1  0.82346000  0.91659200  0.58468200  1
  C  313  1  0.83360800  0.92980200  0.61156500  1
  C  314  1  0.85580600  0.91462900  0.62835600  1
  C  321  1  0.87071400  0.63533200  0.89176400  1
  C  322  1  0.84664200  0.62126200  0.90732800  1
  C  323  1  0.82975000  0.63580600  0.92965100  1
  C  324  1  0.83722600  0.66547100  0.93725800  1
  C  325  1  0.86401300  0.67847500  0.92661400  1
  C  326  1  0.88008100  0.66340500  0.90382000  1
  C  329  1  0.88610500  0.61980000  0.86734400  1
  C  330  1  0.87160000  0.59633400  0.85127600  1
  C  331  1  0.88641400  0.57844700  0.82992900  1
  C  332  1  0.91667300  0.58465700  0.82355800  1
  C  333  1  0.92987400  0.61158200  0.83362900  1
  C  334  1  0.91465600  0.62835900  0.85581300  1
  C  341  1  0.13790900  0.13554800  0.61688100  1
  C  342  1  0.16193800  0.12149600  0.60122400  1
  C  343  1  0.17882200  0.13612300  0.57894100  1
  C  344  1  0.17150100  0.16589100  0.57159500  1
  C  345  1  0.14472400  0.17884900  0.58229300  1
  C  346  1  0.12856800  0.16368500  0.60495700  1
  C  349  1  0.12252500  0.11993700  0.64125900  1
  C  350  1  0.13705900  0.09643300  0.65725300  1
  C  351  1  0.12228700  0.07856800  0.67865900  1
  C  352  1  0.09201900  0.08469800  0.68504700  1
  C  353  1  0.07881000  0.11161300  0.67497900  1
  C  354  1  0.09397800  0.12846600  0.65282300  1
  C  361  1  0.63800300  0.37293000  0.39158000  1
  C  362  1  0.66201200  0.38699700  0.40725900  1
  C  363  1  0.67890200  0.37238700  0.42954400  1
  C  364  1  0.67154700  0.34263700  0.43692700  1
  C  365  1  0.64473500  0.32970200  0.42628700  1
  C  366  1  0.62862200  0.34483200  0.40356400  1
  C  369  1  0.62265100  0.38850500  0.36716200  1
  C  370  1  0.63718800  0.41204000  0.35122300  1
  C  371  1  0.62240800  0.43002400  0.32993600  1
  C  372  1  0.59216500  0.42382100  0.32349200  1
  C  373  1  0.57902100  0.39675800  0.33327200  1
  C  374  1  0.59417000  0.37992300  0.35546600  1
  C  381  1  0.37068300  0.87327000  0.11690000  1
  C  382  1  0.34661200  0.88733400  0.10131800  1
  C  383  1  0.32980700  0.87281000  0.07891500  1
  C  384  1  0.33726300  0.84313700  0.07133300  1
  C  385  1  0.36403100  0.83015900  0.08203600  1
  C  386  1  0.38008900  0.84521100  0.10484700  1
  C  389  1  0.38601900  0.88879800  0.14136100  1
  C  390  1  0.37146500  0.91226200  0.15739500  1
  C  391  1  0.38622900  0.93011300  0.17881200  1
  C  392  1  0.41649500  0.92398500  0.18519200  1
  C  393  1  0.42970100  0.89705600  0.17515700  1
  C  394  1  0.41455500  0.88025100  0.15294400  1
  C  401  1  0.13561500  0.61694200  0.13789400  1
  C  402  1  0.12161800  0.60124200  0.16192300  1
  C  403  1  0.13631500  0.57903700  0.17884200  1
  C  404  1  0.16607800  0.57173300  0.17144800  1
  C  405  1  0.17899500  0.58240200  0.14463200  1
  C  406  1  0.16375100  0.60504700  0.12851500  1
  C  409  1  0.11995100  0.64129900  0.12253900  1
  C  410  1  0.09643600  0.65723500  0.13711300  1
  C  411  1  0.07846900  0.67855800  0.12236000  1
  C  412  1  0.08458600  0.68502700  0.09210600  1
  C  413  1  0.11154400  0.67509700  0.07887800  1
  C  414  1  0.12843900  0.65293300  0.09400200  1
  C  421  1  0.63528100  0.89179300  0.87073400  1
  C  422  1  0.62118200  0.90735200  0.84667100  1
  C  423  1  0.63567600  0.92976000  0.82984600  1
  C  424  1  0.66533900  0.93738800  0.83729100  1
  C  425  1  0.67835300  0.92671600  0.86405700  1
  C  426  1  0.66334300  0.90386900  0.88010800  1
  C  429  1  0.61979100  0.86732600  0.88609400  1
  C  430  1  0.59635400  0.85124000  0.87155500  1
  C  431  1  0.57854800  0.82979700  0.88633300  1
  C  432  1  0.58467700  0.82344800  0.91660800  1
  C  433  1  0.61156000  0.83359700  0.92981800  1
  C  434  1  0.62835000  0.85580000  0.91464700  1
  C  441  1  0.87309000  0.11702400  0.37066600  1
  C  442  1  0.88717100  0.10142400  0.34661700  1
  C  443  1  0.87265900  0.07903500  0.32978700  1
  C  444  1  0.84299800  0.07141500  0.33725400  1
  C  445  1  0.83002700  0.08209700  0.36403800  1
  C  446  1  0.84505200  0.10493200  0.38008900  1
  C  449  1  0.88859700  0.14150600  0.38599000  1
  C  450  1  0.91210600  0.15747800  0.37144900  1
  C  451  1  0.93007500  0.17875000  0.38625600  1
  C  452  1  0.92390700  0.18517200  0.41650600  1
  C  453  1  0.89683300  0.17539900  0.42963100  1
  C  454  1  0.88000300  0.15319900  0.41447600  1
  C  461  1  0.37315500  0.39165800  0.63797800  1
  C  462  1  0.38725900  0.40724400  0.66202700  1
  C  463  1  0.37278900  0.42970100  0.67881300  1
  C  464  1  0.34312900  0.43732600  0.67135400  1
  C  465  1  0.33012800  0.42662100  0.64459700  1
  C  466  1  0.34512700  0.40376700  0.62855500  1
  C  469  1  0.38862800  0.36714400  0.62266200  1
  C  470  1  0.41211800  0.35113800  0.63720800  1
  C  471  1  0.42999500  0.32975500  0.62243500  1
  C  472  1  0.42384600  0.32336500  0.59217600  1
  C  473  1  0.39681600  0.33324600  0.57905500  1
  C  474  1  0.38000800  0.35547200  0.59417900  1
  C  481  1  0.20279300  0.44367700  0.37749800  1
  C  482  1  0.23329400  0.43710700  0.37287400  1
  C  484  1  0.24789500  0.48824700  0.38088400  1
  C  485  1  0.21749500  0.49614300  0.38569100  1
  C  486  1  0.19574800  0.47329900  0.38597000  1
  C  488  1  0.27012200  0.51090000  0.38061600  1
  C  489  1  0.32180600  0.52580500  0.38317000  1
  C  490  1  0.31425900  0.55641000  0.38434000  1
  C  491  1  0.28366000  0.56360300  0.38085500  1
  C  494  1  0.26131700  0.54139600  0.38153600  1
  C  495  1  0.23085100  0.54909300  0.38486700  1
  C  496  1  0.20920000  0.52653300  0.38811000  1
  C  503  1  0.30658600  0.56407600  0.87809800  1
  C  504  1  0.27604100  0.57110100  0.87455000  1
  C  506  1  0.26109800  0.51986300  0.88131100  1
  C  507  1  0.29151400  0.51153000  0.88514800  1
  C  508  1  0.31352600  0.53410500  0.88540200  1
  C  510  1  0.23863300  0.49744200  0.88099900  1
  C  511  1  0.18684600  0.48304000  0.88426800  1
  C  512  1  0.19407700  0.45233900  0.88458300  1
  C  513  1  0.22452500  0.44488500  0.88051200  1
  C  516  1  0.24712000  0.46683500  0.88108400  1
  C  517  1  0.27756000  0.45874700  0.88359600  1
  C  518  1  0.29951900  0.48101200  0.88676900  1
  C  525  1  0.80670100  0.94467200  0.13056900  1
  C  526  1  0.77615000  0.93754200  0.13392900  1
  C  528  1  0.76115800  0.98878800  0.12722400  1
  C  529  1  0.79157100  0.99716200  0.12342500  1
  C  530  1  0.81361900  0.97462200  0.12322500  1
  C  532  1  0.73866700  0.01118900  0.12754300  1
  C  533  1  0.68687100  0.02555800  0.12427900  1
  C  534  1  0.69408200  0.05626600  0.12401300  1
  C  535  1  0.72452100  0.06374500  0.12812600  1
  C  538  1  0.74712600  0.04180400  0.12748800  1
  C  539  1  0.77755200  0.04992600  0.12496900  1
  C  540  1  0.79954000  0.02768900  0.12180900  1
  C  547  1  0.70187900  0.06385200  0.63056000  1
  C  548  1  0.73242400  0.07104700  0.63382100  1
  C  550  1  0.74750100  0.01982900  0.62718200  1
  C  551  1  0.71708800  0.01137700  0.62355100  1
  C  552  1  0.69499300  0.03387700  0.62329200  1
  C  554  1  0.77003400  0.99747500  0.62751900  1
  C  555  1  0.82183400  0.98319300  0.62410500  1
  C  556  1  0.81473500  0.95245800  0.62414500  1
  C  557  1  0.78430500  0.94496200  0.62840100  1
  C  560  1  0.76164400  0.96684500  0.62770400  1
  C  561  1  0.73122500  0.95864800  0.62534600  1
  C  562  1  0.70918100  0.98082100  0.62213300  1
  C  569  1  0.37749400  0.20283900  0.44362300  1
  C  570  1  0.37283600  0.23334000  0.43707600  1
  C  572  1  0.38088600  0.24792400  0.48821300  1
  C  573  1  0.38572700  0.21752300  0.49608900  1
  C  574  1  0.38600600  0.19578900  0.47323500  1
  C  576  1  0.38062500  0.27013700  0.51087800  1
  C  577  1  0.38318600  0.32181100  0.52581200  1
  C  578  1  0.38435100  0.31425400  0.55641500  1
  C  579  1  0.38089000  0.28364700  0.56358900  1
  C  582  1  0.38157400  0.26131700  0.54136900  1
  C  583  1  0.38492800  0.23084800  0.54904600  1
  C  584  1  0.38817000  0.20921200  0.52647300  1
  C  591  1  0.87748800  0.30579600  0.56507400  1
  C  592  1  0.87277500  0.27529800  0.57160600  1
  C  594  1  0.88086700  0.26073900  0.52047100  1
  C  595  1  0.88578200  0.29113600  0.51263100  1
  C  596  1  0.88612100  0.31285600  0.53549600  1
  C  598  1  0.88061900  0.23853900  0.49779100  1
  C  599  1  0.88309500  0.18685600  0.48283400  1
  C  600  1  0.88442900  0.19445000  0.45224900  1
  C  601  1  0.88111900  0.22506500  0.44508600  1
  C  604  1  0.88166900  0.24738800  0.46731100  1
  C  605  1  0.88505200  0.27785700  0.45965600  1
  C  606  1  0.88828500  0.29947000  0.48225600  1
  C  613  1  0.13056900  0.80673500  0.94467400  1
  C  614  1  0.13393300  0.77618300  0.93754400  1
  C  616  1  0.12721600  0.76118700  0.98878800  1
  C  617  1  0.12341300  0.79159700  0.99716200  1
  C  618  1  0.12321800  0.81364800  0.97462200  1
  C  620  1  0.12752900  0.73869400  0.01118900  1
  C  621  1  0.12426900  0.68689800  0.02555600  1
  C  622  1  0.12398800  0.69410400  0.05626400  1
  C  623  1  0.12809000  0.72454600  0.06374400  1
  C  626  1  0.12746000  0.74715000  0.04180400  1
  C  627  1  0.12493600  0.77757900  0.04992600  1
  C  628  1  0.12178500  0.79956700  0.02768900  1
  C  635  1  0.63056900  0.70183000  0.06383500  1
  C  636  1  0.63380700  0.73237500  0.07104100  1
  C  638  1  0.62718600  0.74746500  0.01982400  1
  C  639  1  0.62357800  0.71705400  0.01136100  1
  C  640  1  0.62332300  0.69495000  0.03385300  1
  C  642  1  0.62752100  0.77000700  0.99747700  1
  C  643  1  0.62408900  0.82180900  0.98320800  1
  C  644  1  0.62414300  0.81472200  0.95247100  1
  C  645  1  0.62841000  0.78429300  0.94496900  1
  C  648  1  0.62771800  0.76162900  0.96684300  1
  C  649  1  0.62537300  0.73120900  0.95863700  1
  C  650  1  0.62217100  0.70915600  0.98080300  1
  C  657  1  0.44364300  0.37749600  0.20281400  1
  C  658  1  0.43708500  0.37285200  0.23331400  1
  C  660  1  0.48822000  0.38089500  0.24791100  1
  C  661  1  0.49610900  0.38572200  0.21751200  1
  C  662  1  0.47326400  0.38598600  0.19576800  1
  C  664  1  0.51087600  0.38064500  0.27014000  1
  C  665  1  0.52576500  0.38320100  0.32182400  1
  C  666  1  0.55636100  0.38434500  0.31427000  1
  C  667  1  0.56358700  0.38094400  0.28367100  1
  C  670  1  0.54137100  0.38161800  0.26133300  1
  C  671  1  0.54906200  0.38496300  0.23086600  1
  C  672  1  0.52649500  0.38817200  0.20921600  1
  C  679  1  0.56408300  0.87813400  0.30661100  1
  C  680  1  0.57112300  0.87463900  0.27606200  1
  C  682  1  0.51988100  0.88135600  0.26111600  1
  C  683  1  0.51153400  0.88513900  0.29153600  1
  C  684  1  0.53410500  0.88540200  0.31355300  1
  C  686  1  0.49746200  0.88103000  0.23864800  1
  C  687  1  0.48305300  0.88435900  0.18687400  1
  C  688  1  0.45234100  0.88453100  0.19407100  1
  C  689  1  0.44491600  0.88042700  0.22452700  1
  C  692  1  0.46685700  0.88103200  0.24713100  1
  C  693  1  0.45875600  0.88349700  0.27757100  1
  C  694  1  0.48101200  0.88669500  0.29953700  1
  C  701  1  0.94477900  0.13047600  0.80678400  1
  C  702  1  0.93756000  0.13368600  0.77623700  1
  C  704  1  0.98880200  0.12714300  0.76115100  1
  C  705  1  0.99726000  0.12348600  0.79155500  1
  C  706  1  0.97477200  0.12325900  0.81365200  1
  C  708  1  0.01115000  0.12749300  0.73861100  1
  C  709  1  0.02542100  0.12409600  0.68680900  1
  C  710  1  0.05615900  0.12414300  0.69389200  1
  C  711  1  0.06366200  0.12833700  0.72432900  1
  C  714  1  0.04178300  0.12763300  0.74699200  1
  C  715  1  0.04998600  0.12524100  0.77740900  1
  C  716  1  0.02781400  0.12203800  0.79945700  1
  C  723  1  0.06384100  0.63056900  0.70184800  1
  C  724  1  0.07104600  0.63384100  0.73238800  1
  C  726  1  0.01983600  0.62718400  0.74748300  1
  C  727  1  0.01137400  0.62353800  0.71707700  1
  C  728  1  0.03386600  0.62329200  0.69497300  1
  C  730  1  0.99749200  0.62751700  0.77002500  1
  C  731  1  0.98324800  0.62413800  0.82183800  1
  C  732  1  0.95251800  0.62415200  0.81474400  1
  C  733  1  0.94498200  0.62835400  0.78431800  1
  C  736  1  0.96685600  0.62766700  0.76165100  1
  C  737  1  0.95865000  0.62528400  0.73123600  1
  C  738  1  0.98081700  0.62209100  0.70918100  1
  C  745  1  0.70124500  0.94498900  0.87696600  1
  C  746  1  0.73195500  0.93807800  0.87498100  1
  C  748  1  0.74622800  0.98970400  0.87993600  1
  C  749  1  0.71563200  0.99797500  0.88197900  1
  C  750  1  0.69384000  0.97519900  0.88265100  1
  C  752  1  0.76854400  0.01224900  0.87943600  1
  C  753  1  0.82010600  0.02698200  0.88389300  1
  C  754  1  0.81276400  0.05761600  0.88249000  1
  C  755  1  0.78246700  0.06482700  0.87705300  1
  C  758  1  0.75994100  0.04278100  0.87779700  1
  C  759  1  0.72937600  0.05075100  0.87878600  1
  C  760  1  0.70733900  0.02846300  0.88133400  1
  C  767  1  0.80719500  0.06374600  0.37698300  1
  C  768  1  0.77648700  0.07065400  0.37508000  1
  C  770  1  0.76234600  0.01898100  0.37999900  1
  C  771  1  0.79296800  0.01077600  0.38201100  1
  C  772  1  0.81472600  0.03358100  0.38273300  1
  C  774  1  0.74007600  0.99638700  0.37951500  1
  C  775  1  0.68855700  0.98151600  0.38400100  1
  C  776  1  0.69592400  0.95087900  0.38256700  1
  C  777  1  0.72626100  0.94380300  0.37720100  1
  C  780  1  0.74875100  0.96588000  0.37784900  1
  C  781  1  0.77933400  0.95797300  0.37878500  1
  C  782  1  0.80132400  0.98030500  0.38132800  1
  C  789  1  0.30731600  0.44498300  0.63166100  1
  C  790  1  0.27660200  0.43802500  0.63346100  1
  C  792  1  0.26235100  0.48967600  0.62863600  1
  C  793  1  0.29295400  0.49794200  0.62664400  1
  C  794  1  0.31474800  0.47517500  0.62592000  1
  C  796  1  0.24003900  0.51222000  0.62914900  1
  C  797  1  0.18850600  0.52699300  0.62462700  1
  C  798  1  0.19579000  0.55764100  0.62618600  1
  C  799  1  0.22611700  0.56477500  0.63160800  1
  C  802  1  0.24864700  0.54274200  0.63087500  1
  C  803  1  0.27921200  0.55071400  0.62994000  1
  C  804  1  0.30124900  0.52842900  0.62736300  1
  C  811  1  0.20178000  0.56402000  0.13167600  1
  C  812  1  0.23248500  0.57095600  0.13353600  1
  C  814  1  0.24664200  0.51929400  0.12857800  1
  C  815  1  0.21601900  0.51107700  0.12659600  1
  C  816  1  0.19424500  0.53387500  0.12585800  1
  C  818  1  0.26892100  0.49671200  0.12907800  1
  C  819  1  0.32045100  0.48187600  0.12462500  1
  C  820  1  0.31310400  0.45124700  0.12614400  1
  C  821  1  0.28276700  0.44413000  0.13152500  1
  C  824  1  0.26027000  0.46620100  0.13080200  1
  C  825  1  0.22969200  0.45827800  0.12987400  1
  C  826  1  0.20768600  0.48059900  0.12731700  1
  C  833  1  0.87691700  0.70135900  0.94491300  1
  C  834  1  0.87493600  0.73206700  0.93802600  1
  C  836  1  0.87988900  0.74627300  0.98967500  1
  C  837  1  0.88191400  0.71566100  0.99791000  1
  C  838  1  0.88257700  0.69389200  0.97511100  1
  C  840  1  0.87940700  0.76856400  0.01224200  1
  C  841  1  0.88389900  0.82010300  0.02703300  1
  C  842  1  0.88246800  0.81273900  0.05765900  1
  C  843  1  0.87703700  0.78243300  0.06483600  1
  C  846  1  0.87777200  0.75993000  0.04276600  1
  C  847  1  0.87874300  0.72935400  0.05070200  1
  C  848  1  0.88127100  0.70733900  0.02839000  1
  C  855  1  0.37697600  0.80728000  0.06374600  1
  C  856  1  0.37498000  0.77656700  0.07061800  1
  C  858  1  0.37992300  0.76239900  0.01896000  1
  C  859  1  0.38198400  0.79301500  0.01075600  1
  C  860  1  0.38272400  0.81477100  0.03356300  1
  C  862  1  0.37943200  0.74012800  0.99636900  1
  C  863  1  0.38388500  0.68860200  0.98150200  1
  C  864  1  0.38248500  0.69596600  0.95086400  1
  C  865  1  0.37715000  0.72630800  0.94378300  1
  C  868  1  0.37780200  0.74880000  0.96586000  1
  C  869  1  0.37878000  0.77938100  0.95795100  1
  C  870  1  0.38133200  0.80137100  0.98028500  1
  C  877  1  0.63177100  0.30695900  0.44470800  1
  C  878  1  0.63351900  0.27623800  0.43778600  1
  C  880  1  0.62864700  0.26211900  0.48947300  1
  C  881  1  0.62668200  0.29274200  0.49767200  1
  C  882  1  0.62599800  0.31449300  0.47486200  1
  C  884  1  0.62913400  0.23985600  0.51206800  1
  C  885  1  0.62458900  0.18835800  0.52695500  1
  C  886  1  0.62613900  0.19571000  0.55758700  1
  C  887  1  0.63156800  0.22605000  0.56465700  1
  C  890  1  0.63085500  0.24853100  0.54257300  1
  C  891  1  0.62994400  0.27911600  0.55047700  1
  C  892  1  0.62739600  0.30110600  0.52814100  1
  C  899  1  0.13179900  0.20164800  0.56390200  1
  C  900  1  0.13364100  0.23235600  0.57086200  1
  C  902  1  0.12865900  0.24658000  0.51922000  1
  C  903  1  0.12667400  0.21596700  0.51097200  1
  C  904  1  0.12595800  0.19417000  0.53374800  1
  C  906  1  0.12914200  0.26888300  0.49666300  1
  C  907  1  0.12467700  0.32042800  0.48188700  1
  C  908  1  0.12617600  0.31311500  0.45124900  1
  C  909  1  0.13155200  0.28278500  0.44409400  1
  C  912  1  0.13084400  0.26026600  0.46614300  1
  C  913  1  0.12990800  0.22969600  0.45818700  1
  C  914  1  0.12736800  0.20766600  0.48048500  1
  C  921  1  0.94499100  0.87693500  0.70124900  1
  C  922  1  0.93809100  0.87496100  0.73196200  1
  C  924  1  0.98972400  0.87991300  0.74621500  1
  C  925  1  0.99798400  0.88194500  0.71561400  1
  C  926  1  0.97520100  0.88261500  0.69383200  1
  C  928  1  0.01227400  0.87942900  0.76852400  1
  C  929  1  0.02703000  0.88395700  0.82006300  1
  C  930  1  0.05766100  0.88247900  0.81272800  1
  C  931  1  0.06485700  0.87703700  0.78242900  1
  C  934  1  0.04280400  0.87778500  0.75991200  1
  C  935  1  0.05076400  0.87875900  0.72934200  1
  C  936  1  0.02846900  0.88130000  0.70731000  1
  C  943  1  0.06370400  0.37696900  0.80720400  1
  C  944  1  0.07064700  0.37504400  0.77650300  1
  C  946  1  0.01899100  0.37997500  0.76229000  1
  C  947  1  0.01075200  0.38200900  0.79290100  1
  C  948  1  0.03353000  0.38272800  0.81468900  1
  C  950  1  0.99642300  0.37948600  0.73999400  1
  C  951  1  0.98160700  0.38394300  0.68845200  1
  C  952  1  0.95096000  0.38251600  0.69577900  1
  C  953  1  0.94385000  0.37718800  0.72611600  1
  C  956  1  0.96590300  0.37784200  0.74863100  1
  C  957  1  0.95796200  0.37880500  0.77920400  1
  C  958  1  0.98027200  0.38134600  0.80122200  1
  C  965  1  0.44498500  0.63165500  0.30731600  1
  C  966  1  0.43802300  0.63346100  0.27660400  1
  C  968  1  0.48966900  0.62862900  0.26234700  1
  C  969  1  0.49794000  0.62663000  0.29294700  1
  C  970  1  0.47517700  0.62590700  0.31474500  1
  C  972  1  0.51221100  0.62914200  0.24003000  1
  C  973  1  0.52697500  0.62462300  0.18849700  1
  C  974  1  0.55762500  0.62617700  0.19577700  1
  C  975  1  0.56476600  0.63159400  0.22610100  1
  C  978  1  0.54273600  0.63086200  0.24863600  1
  C  979  1  0.55071200  0.62992200  0.27920100  1
  C  980  1  0.52842900  0.62734300  0.30124000  1
  C  987  1  0.56396400  0.13172800  0.20173900  1
  C  988  1  0.57090900  0.13357400  0.23244300  1
  C  990  1  0.51924900  0.12861500  0.24661100  1
  C  991  1  0.51102500  0.12664400  0.21598900  1
  C  992  1  0.53381900  0.12591600  0.19420900  1
  C  994  1  0.49667200  0.12910600  0.26889400  1
  C  995  1  0.48184300  0.12463700  0.32042600  1
  C  996  1  0.45121300  0.12615500  0.31308600  1
  C  997  1  0.44409200  0.13154300  0.28275100  1
  C  1000  1  0.46615800  0.13082800  0.26025000  1
  C  1001  1  0.45822900  0.12991000  0.22967200  1
  C  1002  1  0.48054500  0.12736300  0.20766200  1
  C  1009  1  0.05795900  0.31140900  0.36991100  1
  C  1010  1  0.06491700  0.28129100  0.36343500  1
  C  1012  1  0.01333000  0.26769900  0.36120200  1
  C  1013  1  0.00478700  0.29807600  0.36498500  1
  C  1014  1  0.02750700  0.31961800  0.36984200  1
  C  1016  1  0.99154600  0.24480000  0.36143900  1
  C  1017  1  0.98012000  0.19275100  0.36767600  1
  C  1018  1  0.94935200  0.19873700  0.37060800  1
  C  1019  1  0.93993300  0.22873400  0.36693900  1
  C  1022  1  0.96078900  0.25224900  0.36359200  1
  C  1023  1  0.95218300  0.28267800  0.36496500  1
  C  1024  1  0.97405100  0.30538700  0.36619700  1
  C  1031  1  0.45062600  0.69733500  0.86940500  1
  C  1032  1  0.44371000  0.72744700  0.86282700  1
  C  1034  1  0.49533900  0.74093100  0.86079700  1
  C  1035  1  0.50381500  0.71053600  0.86461300  1
  C  1036  1  0.48104600  0.68903100  0.86938100  1
  C  1038  1  0.51716200  0.76379300  0.86115900  1
  C  1039  1  0.52863700  0.81583200  0.86749800  1
  C  1040  1  0.55936900  0.80974900  0.87064000  1
  C  1041  1  0.56875200  0.77975200  0.86704700  1
  C  1044  1  0.54789600  0.75627900  0.86346100  1
  C  1045  1  0.55644800  0.72583700  0.86482800  1
  C  1046  1  0.53453200  0.70317000  0.86594600  1
  C  1053  1  0.95067600  0.81128500  0.13907500  1
  C  1054  1  0.94368500  0.78116700  0.14559700  1
  C  1056  1  0.99528400  0.76753900  0.14768700  1
  C  1057  1  0.00383400  0.79792100  0.14396100  1
  C  1058  1  0.98112300  0.81948300  0.13917600  1
  C  1060  1  0.01705500  0.74462700  0.14737600  1
  C  1061  1  0.02846400  0.69259200  0.14101900  1
  C  1062  1  0.05924600  0.69854800  0.13806700  1
  C  1063  1  0.06863700  0.72855200  0.14174700  1
  C  1066  1  0.04781100  0.75206900  0.14521400  1
  C  1067  1  0.05643200  0.78249600  0.14389900  1
  C  1068  1  0.03457300  0.80521600  0.14273000  1
  C  1075  1  0.55797100  0.19729900  0.63907700  1
  C  1076  1  0.56490200  0.22742800  0.64556400  1
  C  1078  1  0.51328700  0.24093500  0.64773200  1
  C  1079  1  0.50479500  0.21053600  0.64395400  1
  C  1080  1  0.52754900  0.18901200  0.63917500  1
  C  1082  1  0.49146700  0.26380000  0.64742600  1
  C  1083  1  0.47999400  0.31584900  0.64118000  1
  C  1084  1  0.44925000  0.30977900  0.63812800  1
  C  1085  1  0.43985600  0.27977900  0.64177000  1
  C  1088  1  0.46072600  0.25630000  0.64523100  1
  C  1089  1  0.45216700  0.22586200  0.64385800  1
  C  1090  1  0.47407200  0.20318700  0.64266500  1
  C  1097  1  0.36978100  0.05801800  0.31137100  1
  C  1098  1  0.36330800  0.06495900  0.28124600  1
  C  1100  1  0.36105900  0.01336400  0.26768600  1
  C  1101  1  0.36483300  0.00483900  0.29807000  1
  C  1102  1  0.36969400  0.02757100  0.31959800  1
  C  1104  1  0.36130300  0.99156400  0.24480000  1
  C  1105  1  0.36756400  0.98011600  0.19275200  1
  C  1106  1  0.37052900  0.94936100  0.19879100  1
  C  1107  1  0.36684700  0.93993800  0.22877600  1
  C  1110  1  0.36346900  0.96081200  0.25227200  1
  C  1111  1  0.36483500  0.95222600  0.28270500  1
  C  1112  1  0.36604600  0.97410900  0.30540000  1
  C  1119  1  0.86958400  0.45067000  0.69723700  1
  C  1120  1  0.86305200  0.44371500  0.72734800  1
  C  1122  1  0.86099800  0.49532500  0.74090200  1
  C  1123  1  0.86478300  0.50384200  0.71051600  1
  C  1124  1  0.86954100  0.48110400  0.68897500  1
  C  1126  1  0.86134900  0.51712100  0.76379000  1
  C  1127  1  0.86767700  0.52855000  0.81583600  1
  C  1128  1  0.87078500  0.55930200  0.80981000  1
  C  1129  1  0.86717700  0.56869400  0.77981400  1
  C  1132  1  0.86361100  0.54786500  0.75631400  1
  C  1133  1  0.86495500  0.55645700  0.72588300  1
  C  1134  1  0.86608200  0.53457000  0.70318800  1
  C  1141  1  0.13906400  0.95070300  0.81126500  1
  C  1142  1  0.14556700  0.94374100  0.78113800  1
  C  1144  1  0.14765900  0.99535600  0.76756000  1
  C  1145  1  0.14395000  0.00387400  0.79795000  1
  C  1146  1  0.13917600  0.98114300  0.81949400  1
  C  1148  1  0.14733800  0.01715000  0.74466500  1
  C  1149  1  0.14096500  0.02860200  0.69263000  1
  C  1150  1  0.13798200  0.05935900  0.69867900  1
  C  1151  1  0.14168500  0.06876100  0.72866400  1
  C  1154  1  0.14517200  0.04790000  0.75214800  1
  C  1155  1  0.14387200  0.05648800  0.78258300  1
  C  1156  1  0.14272200  0.03460500  0.80528100  1
  C  1163  1  0.63899900  0.55791800  0.19731300  1
  C  1164  1  0.64549200  0.56487100  0.22743400  1
  C  1166  1  0.64764000  0.51326700  0.24098800  1
  C  1167  1  0.64385600  0.50475300  0.21059800  1
  C  1168  1  0.63907900  0.52748900  0.18905400  1
  C  1170  1  0.64733400  0.49146700  0.26387200  1
  C  1171  1  0.64110700  0.48002300  0.31592000  1
  C  1172  1  0.63806500  0.44925700  0.30992700  1
  C  1173  1  0.64169600  0.43988300  0.27991100  1
  C  1176  1  0.64514200  0.46072300  0.25640500  1
  C  1177  1  0.64375900  0.45213500  0.22597400  1
  C  1178  1  0.64256000  0.47402100  0.20327800  1
  C  1185  1  0.31134900  0.36983300  0.05800300  1
  C  1186  1  0.28123100  0.36336200  0.06496500  1
  C  1188  1  0.26762500  0.36113500  0.01337900  1
  C  1189  1  0.29800500  0.36490900  0.00483200  1
  C  1190  1  0.31955100  0.36975900  0.02754900  1
  C  1192  1  0.24472400  0.36139000  0.99159700  1
  C  1193  1  0.19268300  0.36767300  0.98018300  1
  C  1194  1  0.19865400  0.37059200  0.94941000  1
  C  1195  1  0.22865100  0.36693200  0.93998900  1
  C  1198  1  0.25216900  0.36356300  0.96084100  1
  C  1199  1  0.28259500  0.36492700  0.95223000  1
  C  1200  1  0.30530900  0.36613300  0.97409500  1
  C  1207  1  0.69731300  0.86938100  0.45066400  1
  C  1208  1  0.72742000  0.86279800  0.44374400  1
  C  1210  1  0.74091600  0.86077500  0.49537000  1
  C  1211  1  0.71052300  0.86459300  0.50385100  1
  C  1212  1  0.68901300  0.86936000  0.48108600  1
  C  1214  1  0.76378100  0.86113900  0.51718800  1
  C  1215  1  0.81582300  0.86747600  0.52865200  1
  C  1216  1  0.80974700  0.87062200  0.55938500  1
  C  1217  1  0.77974900  0.86703400  0.56877400  1
  C  1220  1  0.75627400  0.86344500  0.54792300  1
  C  1221  1  0.72583400  0.86481600  0.55648200  1
  C  1222  1  0.70316300  0.86593500  0.53456700  1
  C  1229  1  0.81131900  0.13901400  0.95070700  1
  C  1230  1  0.78120300  0.14553900  0.94370900  1
  C  1232  1  0.76757100  0.14764900  0.99530600  1
  C  1233  1  0.79794800  0.14392200  0.00386300  1
  C  1234  1  0.81951400  0.13912500  0.98115600  1
  C  1236  1  0.74465400  0.14734800  0.01707400  1
  C  1237  1  0.69261500  0.14100400  0.02847600  1
  C  1238  1  0.69856500  0.13805800  0.05926000  1
  C  1239  1  0.72857000  0.14173400  0.06865500  1
  C  1242  1  0.75209200  0.14519300  0.04783100  1
  C  1243  1  0.78251400  0.14387700  0.05645800  1
  C  1244  1  0.80523900  0.14269900  0.03460300  1
  C  1251  1  0.19730700  0.63905000  0.55795300  1
  C  1252  1  0.22743200  0.64554100  0.56488700  1
  C  1254  1  0.24094100  0.64772100  0.51327400  1
  C  1255  1  0.21054400  0.64394300  0.50478000  1
  C  1256  1  0.18901900  0.63915500  0.52753100  1
  C  1258  1  0.26380700  0.64741700  0.49145600  1
  C  1259  1  0.31585700  0.64116700  0.47998900  1
  C  1260  1  0.30978800  0.63811700  0.44924600  1
  C  1261  1  0.27979100  0.64176800  0.43984700  1
  C  1264  1  0.25631100  0.64522900  0.46071400  1
  C  1265  1  0.22587300  0.64385800  0.45215300  1
  C  1266  1  0.20319600  0.64266100  0.47405400  1
  C  1273  1  0.06072600  0.30848600  0.88789200  1
  C  1274  1  0.03014200  0.31494900  0.89245400  1
  C  1276  1  0.01784300  0.26325800  0.89742200  1
  C  1277  1  0.04860500  0.25543600  0.89591300  1
  C  1278  1  0.06979100  0.27841700  0.89071200  1
  C  1280  1  0.99558100  0.24082500  0.89750000  1
  C  1281  1  0.94408700  0.22764000  0.89035900  1
  C  1282  1  0.95101600  0.19694500  0.88904200  1
  C  1283  1  0.98114500  0.18856700  0.89385600  1
  C  1286  1  0.00393000  0.21022000  0.89737300  1
  C  1287  1  0.03460200  0.20246500  0.89812800  1
  C  1288  1  0.05678500  0.22495100  0.89747100  1
  C  1295  1  0.44785000  0.70010800  0.38803600  1
  C  1296  1  0.47842800  0.69364400  0.39266300  1
  C  1298  1  0.49069200  0.74536800  0.39747000  1
  C  1299  1  0.45992600  0.75316600  0.39593600  1
  C  1300  1  0.43874200  0.73016200  0.39082300  1
  C  1302  1  0.51294100  0.76781400  0.39747900  1
  C  1303  1  0.56444200  0.78101800  0.39034900  1
  C  1304  1  0.55750200  0.81170500  0.38893800  1
  C  1305  1  0.52734600  0.82005200  0.39361400  1
  C  1308  1  0.50457000  0.79841500  0.39726000  1
  C  1309  1  0.47389600  0.80615200  0.39798100  1
  C  1310  1  0.45172700  0.78364800  0.39740300  1
  C  1317  1  0.56053000  0.19988800  0.12104600  1
  C  1318  1  0.52992700  0.19312200  0.11699600  1
  C  1320  1  0.51717700  0.24466600  0.11161400  1
  C  1321  1  0.54790100  0.25272700  0.11244400  1
  C  1322  1  0.56933700  0.22996900  0.11762700  1
  C  1324  1  0.49474300  0.26692200  0.11162100  1
  C  1325  1  0.44339500  0.27988900  0.11997800  1
  C  1326  1  0.45005000  0.31067200  0.12031500  1
  C  1327  1  0.47995100  0.31912900  0.11430800  1
  C  1330  1  0.50284200  0.29757800  0.11087800  1
  C  1331  1  0.53344000  0.30553700  0.10950700  1
  C  1332  1  0.55580700  0.28325200  0.11029600  1
  C  1339  1  0.94785600  0.80847400  0.62044700  1
  C  1340  1  0.97843900  0.81494300  0.61587000  1
  C  1342  1  0.99072200  0.76323700  0.61100600  1
  C  1343  1  0.95995600  0.75542600  0.61253800  1
  C  1344  1  0.93876100  0.77842100  0.61764500  1
  C  1346  1  0.01297900  0.74079700  0.61098600  1
  C  1347  1  0.06449300  0.72763000  0.61806700  1
  C  1348  1  0.05756100  0.69694400  0.61949800  1
  C  1349  1  0.02741100  0.68856400  0.61477100  1
  C  1352  1  0.00462500  0.71019700  0.61117600  1
  C  1353  1  0.97395500  0.70244200  0.61046800  1
  C  1354  1  0.95177700  0.72493400  0.61108200  1
  C  1361  1  0.80848500  0.62059000  0.94784700  1
  C  1362  1  0.81495200  0.61601300  0.97842700  1
  C  1364  1  0.76325900  0.61109800  0.99074400  1
  C  1365  1  0.75543000  0.61262700  0.95998500  1
  C  1366  1  0.77841000  0.61781000  0.93879500  1
  C  1368  1  0.74083500  0.61103500  0.01301300  1
  C  1369  1  0.72767000  0.61816500  0.06451500  1
  C  1370  1  0.69697800  0.61950700  0.05760400  1
  C  1371  1  0.68858400  0.61472600  0.02746800  1
  C  1374  1  0.71022600  0.61119600  0.00467400  1
  C  1375  1  0.70246200  0.61045700  0.97400400  1
  C  1376  1  0.72494100  0.61110000  0.95181500  1
  C  1383  1  0.19986800  0.12090600  0.56046500  1
  C  1384  1  0.19315000  0.11682000  0.52986300  1
  C  1386  1  0.24471100  0.11146200  0.51720400  1
  C  1387  1  0.25272900  0.11235800  0.54793800  1
  C  1388  1  0.22993500  0.11753100  0.56934100  1
  C  1390  1  0.26700200  0.11149800  0.49480500  1
  C  1391  1  0.28001400  0.11984100  0.44345400  1
  C  1392  1  0.31078000  0.12029600  0.45018800  1
  C  1393  1  0.31922300  0.11435500  0.48008800  1
  C  1396  1  0.29765200  0.11084300  0.50294900  1
  C  1397  1  0.30556300  0.10951600  0.53356000  1
  C  1398  1  0.28324700  0.11027500  0.55589700  1
  C  1405  1  0.69995700  0.38762000  0.44799300  1
  C  1406  1  0.69319700  0.39171400  0.47859600  1
  C  1408  1  0.74474800  0.39705700  0.49134400  1
  C  1409  1  0.75280400  0.39619500  0.46061800  1
  C  1410  1  0.73004100  0.39101000  0.43918900  1
  C  1412  1  0.76700800  0.39704400  0.51377600  1
  C  1413  1  0.77996800  0.38869900  0.56514100  1
  C  1414  1  0.81073600  0.38831700  0.55842200  1
  C  1415  1  0.81923000  0.39431700  0.52854500  1
  C  1418  1  0.79766900  0.39775400  0.50566600  1
  C  1419  1  0.80561800  0.39909600  0.47506600  1
  C  1420  1  0.78332900  0.39831200  0.45270200  1
  C  1427  1  0.30847700  0.88802800  0.06078300  1
  C  1428  1  0.31497500  0.89259400  0.03020400  1
  C  1430  1  0.26328200  0.89748200  0.01787700  1
  C  1431  1  0.25544500  0.89595700  0.04863600  1
  C  1432  1  0.27842000  0.89084600  0.06985300  1
  C  1434  1  0.24086300  0.89751400  0.99560100  1
  C  1435  1  0.22772500  0.89044400  0.94408900  1
  C  1436  1  0.19701300  0.88902600  0.95094200  1
  C  1437  1  0.18865500  0.89374200  0.98110900  1
  C  1440  1  0.21025800  0.89733100  0.00392300  1
  C  1441  1  0.20247400  0.89803600  0.03458700  1
  C  1442  1  0.22494400  0.89741800  0.05678600  1
  C  1449  1  0.12114800  0.56048100  0.19984300  1
  C  1450  1  0.11712400  0.52987600  0.19311500  1
  C  1452  1  0.11163900  0.51715000  0.24464100  1
  C  1453  1  0.11251400  0.54787800  0.25269400  1
  C  1454  1  0.11775500  0.56929700  0.22993100  1
  C  1456  1  0.11161900  0.49472700  0.26690600  1
  C  1457  1  0.11997000  0.44338200  0.27988200  1
  C  1458  1  0.12029200  0.45005900  0.31065500  1
  C  1459  1  0.11427300  0.47994700  0.31913800  1
  C  1462  1  0.11090100  0.50283500  0.29756500  1
  C  1463  1  0.10955000  0.53344000  0.30550800  1
  C  1464  1  0.11036400  0.55580100  0.28321600  1
  C  1471  1  0.62044100  0.94789400  0.80852800  1
  C  1472  1  0.61581600  0.97847200  0.81498300  1
  C  1474  1  0.61100600  0.99072000  0.76325900  1
  C  1475  1  0.61254300  0.95995200  0.75546800  1
  C  1476  1  0.61765800  0.93877400  0.77847700  1
  C  1478  1  0.61099700  0.01296400  0.74080900  1
  C  1479  1  0.61814500  0.06445900  0.72759800  1
  C  1480  1  0.61954700  0.05751100  0.69691100  1
  C  1481  1  0.61484700  0.02735800  0.68856800  1
  C  1484  1  0.61120300  0.00458800  0.71021000  1
  C  1485  1  0.61047900  0.97391000  0.70247800  1
  C  1486  1  0.61107100  0.95174800  0.72498600  1
  C  1493  1  0.88789200  0.06089600  0.30847300  1
  C  1494  1  0.89250500  0.03032200  0.31500700  1
  C  1496  1  0.89733500  0.01793100  0.26330700  1
  C  1497  1  0.89584100  0.04868000  0.25544200  1
  C  1498  1  0.89070800  0.06991100  0.27839500  1
  C  1500  1  0.89738000  0.99563000  0.24091200  1
  C  1501  1  0.89024500  0.94412700  0.22778700  1
  C  1502  1  0.88894400  0.95094400  0.19706000  1
  C  1503  1  0.89368400  0.98110500  0.18870000  1
  C  1506  1  0.89724100  0.00393200  0.21029800  1
  C  1507  1  0.89798500  0.03459000  0.20249000  1
  C  1508  1  0.89736400  0.05680700  0.22494200  1
  C  1515  1  0.38802900  0.44781000  0.70015100  1
  C  1516  1  0.39261300  0.47839300  0.69368000  1
  C  1518  1  0.39745400  0.49069200  0.74538800  1
  C  1519  1  0.39591800  0.45992600  0.75320200  1
  C  1520  1  0.39082300  0.43872400  0.73020900  1
  C  1522  1  0.39746600  0.51295200  0.76782300  1
  C  1523  1  0.39040700  0.56447400  0.78098600  1
  C  1524  1  0.38895600  0.55754700  0.81167400  1
  C  1525  1  0.39365200  0.52739300  0.82005700  1
  C  1528  1  0.39725300  0.50460300  0.79842600  1
  C  1529  1  0.39795000  0.47393400  0.80618500  1
  C  1530  1  0.39735600  0.45175300  0.78369500  1
  N  483  1  0.25435300  0.45903100  0.37512300  1
  N  493  1  0.29995900  0.50461900  0.38103300  1
  N  505  1  0.25482200  0.54931000  0.87660600  1
  N  515  1  0.20888100  0.50403200  0.88216000  1
  N  527  1  0.75491400  0.95932400  0.13187700  1
  N  537  1  0.70892200  0.00458000  0.12637000  1
  N  549  1  0.75370600  0.04932200  0.63170400  1
  N  559  1  0.79975200  0.00414000  0.62614600  1
  N  571  1  0.37509400  0.25439100  0.45900600  1
  N  581  1  0.38102200  0.29997900  0.50461200  1
  N  593  1  0.87501200  0.25426100  0.54966000  1
  N  603  1  0.88092500  0.20868900  0.50403600  1
  N  615  1  0.13187800  0.75494600  0.95932400  1
  N  625  1  0.12636400  0.70894900  0.00457900  1
  N  637  1  0.63168800  0.75366400  0.04932100  1
  N  647  1  0.62613200  0.79972300  0.00414900  1
  N  659  1  0.45901100  0.37510900  0.25437000  1
  N  669  1  0.50458500  0.38102400  0.29997700  1
  N  681  1  0.54933400  0.87670000  0.25483900  1
  N  691  1  0.50405200  0.88226700  0.20890300  1
  N  703  1  0.95930200  0.13164700  0.75495900  1
  N  713  1  0.00447700  0.12614900  0.70889100  1
  N  725  1  0.04932800  0.63172200  0.75367700  1
  N  735  1  0.00417800  0.62617300  0.79974300  1
  N  747  1  0.75291400  0.96012400  0.87692800  1
  N  757  1  0.79823200  0.00583500  0.88201000  1
  N  769  1  0.75558900  0.04855000  0.37702500  1
  N  779  1  0.71037600  0.00272400  0.38209800  1
  N  791  1  0.25565900  0.46008900  0.63155600  1
  N  801  1  0.21035700  0.50582500  0.62651400  1
  N  813  1  0.25339200  0.54886500  0.13154400  1
  N  823  1  0.29861400  0.50306700  0.12647100  1
  N  835  1  0.87689000  0.75299400  0.96010100  1
  N  845  1  0.88198600  0.79825600  0.00585800  1
  N  857  1  0.37690700  0.75565600  0.04852600  1
  N  867  1  0.38198200  0.71042200  0.00270900  1
  N  879  1  0.63157600  0.25535100  0.45990200  1
  N  889  1  0.62649000  0.21016200  0.50573800  1
  N  901  1  0.13163500  0.25329200  0.54880000  1
  N  911  1  0.12653700  0.29857000  0.50305400  1
  N  923  1  0.96014400  0.87691500  0.75291100  1
  N  933  1  0.00586700  0.88201700  0.79821100  1
  N  945  1  0.04856900  0.37698300  0.75557300  1
  N  955  1  0.00279100  0.38204700  0.71029500  1
  N  967  1  0.46008500  0.63155600  0.25565700  1
  N  977  1  0.50580900  0.62651200  0.21035100  1
  N  989  1  0.54882300  0.13157700  0.25335500  1
  N  999  1  0.50303100  0.12649000  0.29858800  1
  N  1011  1  0.04285900  0.26078800  0.36038500  1
  N  1021  1  0.99970800  0.21554800  0.36340800  1
  N  1033  1  0.46582800  0.74789800  0.85986800  1
  N  1043  1  0.50904000  0.79306200  0.86310600  1
  N  1055  1  0.96575300  0.76065100  0.14851900  1
  N  1065  1  0.00888400  0.71538200  0.14535600  1
  N  1077  1  0.54280500  0.24789000  0.64858500  1
  N  1087  1  0.49959700  0.29306600  0.64546800  1
  N  1099  1  0.36025300  0.04288900  0.26075700  1
  N  1109  1  0.36327700  0.99971000  0.21554000  1
  N  1121  1  0.86009800  0.46580300  0.74783400  1
  N  1131  1  0.86330500  0.50896900  0.79304900  1
  N  1143  1  0.14848300  0.96582900  0.76064000  1
  N  1153  1  0.14531600  0.00900700  0.71540600  1
  N  1165  1  0.64850500  0.54279100  0.24791700  1
  N  1175  1  0.64538700  0.49961700  0.29312800  1
  N  1187  1  0.26072300  0.36031800  0.04291000  1
  N  1197  1  0.21547400  0.36335900  0.99976600  1
  N  1209  1  0.74787600  0.85984100  0.46585700  1
  N  1219  1  0.79304900  0.86308100  0.50906000  1
  N  1231  1  0.76068400  0.14847300  0.96577300  1
  N  1241  1  0.71540900  0.14533200  0.00889900  1
  N  1253  1  0.24789700  0.64856700  0.54279100  1
  N  1263  1  0.29307200  0.64545400  0.49959000  1
  N  1275  1  0.01010100  0.29254800  0.89595500  1
  N  1285  1  0.96621300  0.24804900  0.89418200  1
  N  1297  1  0.49844900  0.71607600  0.39608600  1
  N  1307  1  0.54232000  0.76060400  0.39420800  1
  N  1319  1  0.50967400  0.21535100  0.11363000  1
  N  1329  1  0.46554400  0.25955300  0.11592100  1
  N  1341  1  0.99847100  0.79252900  0.61240900  1
  N  1351  1  0.04235100  0.74803000  0.61425500  1
  N  1363  1  0.79255300  0.61253100  0.99847500  1
  N  1373  1  0.74807000  0.61433600  0.04238000  1
  N  1385  1  0.21540300  0.11341200  0.50965000  1
  N  1395  1  0.25966300  0.11575200  0.46558700  1
  N  1407  1  0.71542900  0.39507600  0.49884400  1
  N  1417  1  0.75963900  0.39276700  0.54298400  1
  N  1429  1  0.29257900  0.89606400  0.01015200  1
  N  1439  1  0.24811600  0.89424700  0.96624000  1
  N  1451  1  0.11365500  0.50963000  0.21532900  1
  N  1461  1  0.11589700  0.46552200  0.25954200  1
  N  1473  1  0.61239300  0.99848800  0.79254600  1
  N  1483  1  0.61428200  0.04234200  0.74801700  1
  N  1495  1  0.89589500  0.01024600  0.29261500  1
  N  1505  1  0.89407300  0.96627300  0.24817400  1
  N  1517  1  0.39606600  0.49843100  0.71609200  1
  N  1527  1  0.39421900  0.54232700  0.76059000  1
  O  8  1  0.06860300  0.30189500  0.43052000  1
  O  15  1  0.18098600  0.45869800  0.32130400  1
  O  28  1  0.43997900  0.70720300  0.92996300  1
  O  35  1  0.32945800  0.54744700  0.82327000  1
  O  48  1  0.93998900  0.80150500  0.07850500  1
  O  55  1  0.82947500  0.96112200  0.18541700  1
  O  68  1  0.56867400  0.20711500  0.57850600  1
  O  75  1  0.67904500  0.04739700  0.68540900  1
  O  88  1  0.43039100  0.06862300  0.30182100  1
  O  95  1  0.32132400  0.18101700  0.45869800  1
  O  108  1  0.93018200  0.44007300  0.70689900  1
  O  115  1  0.82136300  0.32760500  0.54985900  1
  O  128  1  0.07849400  0.94000500  0.80149200  1
  O  135  1  0.18539800  0.82954700  0.96113500  1
  O  148  1  0.57842700  0.56865400  0.20710000  1
  O  155  1  0.68542400  0.67898500  0.04740600  1
  O  168  1  0.30184600  0.43044900  0.06860400  1
  O  175  1  0.45868500  0.32131000  0.18100600  1
  O  188  1  0.70718900  0.92993600  0.44003900  1
  O  195  1  0.54747000  0.82327900  0.32943200  1
  O  208  1  0.80153600  0.07844100  0.94002500  1
  O  215  1  0.96118900  0.18534400  0.82957300  1
  O  228  1  0.20712800  0.57847900  0.56867800  1
  O  235  1  0.04737700  0.68540400  0.67898500  1
  O  248  1  0.05282400  0.31891000  0.82686700  1
  O  255  1  0.20266800  0.43273100  0.94320000  1
  O  268  1  0.45589600  0.68968300  0.32702700  1
  O  275  1  0.30591000  0.57587500  0.44310100  1
  O  288  1  0.55336500  0.18992000  0.18226800  1
  O  295  1  0.70264500  0.07592000  0.06540100  1
  O  308  1  0.95589200  0.81888900  0.68147200  1
  O  315  1  0.80576100  0.93279700  0.56557200  1
  O  328  1  0.81884900  0.68161900  0.95574500  1
  O  335  1  0.93292000  0.56553400  0.80591100  1
  O  348  1  0.18994300  0.18211800  0.55324000  1
  O  355  1  0.07582900  0.06556200  0.70273000  1
  O  368  1  0.68998000  0.32641000  0.45529300  1
  O  375  1  0.57585100  0.44313400  0.30611500  1
  O  388  1  0.31892300  0.82699400  0.05280500  1
  O  395  1  0.43269100  0.94313300  0.20285900  1
  O  408  1  0.18236500  0.55342000  0.18988000  1
  O  415  1  0.06537500  0.70264300  0.07592900  1
  O  428  1  0.68145200  0.95592400  0.81893300  1
  O  435  1  0.56557000  0.80574600  0.93281000  1
  O  448  1  0.82686500  0.05288000  0.31891400  1
  O  455  1  0.94323400  0.20253100  0.43282700  1
  O  468  1  0.32701300  0.45587100  0.68970100  1
  O  475  1  0.44311400  0.30591900  0.57588200  1
  O  499  1  0.22196800  0.57808800  0.38752400  1
  O  501  1  0.18028300  0.53476400  0.39283700  1
  O  521  1  0.28617700  0.42961600  0.88556300  1
  O  523  1  0.32842000  0.47237300  0.89073400  1
  O  543  1  0.78614000  0.07906900  0.12303400  1
  O  545  1  0.82843500  0.03635800  0.11785500  1
  O  565  1  0.72269300  0.92947600  0.62360700  1
  O  567  1  0.68028900  0.97206800  0.61834200  1
  O  587  1  0.38760700  0.22195100  0.57803700  1
  O  589  1  0.39291700  0.18029400  0.53468600  1
  O  609  1  0.88786100  0.28677100  0.43068500  1
  O  611  1  0.89311500  0.32838400  0.47407600  1
  O  631  1  0.12299100  0.78616500  0.07906900  1
  O  633  1  0.11782500  0.82846100  0.03635800  1
  O  653  1  0.62364500  0.72268600  0.92946100  1
  O  655  1  0.61839500  0.68026600  0.97203900  1
  O  675  1  0.57805400  0.38765000  0.22198100  1
  O  677  1  0.53471900  0.39290600  0.18029800  1
  O  697  1  0.42962000  0.88539500  0.28618400  1
  O  699  1  0.47235700  0.89060700  0.32844000  1
  O  719  1  0.07915800  0.12347400  0.78593500  1
  O  721  1  0.03656700  0.11823300  0.82834800  1
  O  741  1  0.92947600  0.62351800  0.72271500  1
  O  743  1  0.97205500  0.61827900  0.68029500  1
  O  763  1  0.72050000  0.07986300  0.87773900  1
  O  765  1  0.67814500  0.03702700  0.88266200  1
  O  785  1  0.78826600  0.92887800  0.37773100  1
  O  787  1  0.83053800  0.97180200  0.38263000  1
  O  807  1  0.28808600  0.57982500  0.63104700  1
  O  809  1  0.33044500  0.53699000  0.62607000  1
  O  829  1  0.22077500  0.42918000  0.13098100  1
  O  831  1  0.17847800  0.47207300  0.12602800  1
  O  851  1  0.87769800  0.72044800  0.07980500  1
  O  853  1  0.88258200  0.67813400  0.03692300  1
  O  873  1  0.37776200  0.78831300  0.92885300  1
  O  875  1  0.38268100  0.83058100  0.97178000  1
  O  895  1  0.63105400  0.28805300  0.57956800  1
  O  897  1  0.62613500  0.33032300  0.53664000  1
  O  917  1  0.13098900  0.22081100  0.42907800  1
  O  919  1  0.12607000  0.17846800  0.47192800  1
  O  939  1  0.07987300  0.87770500  0.72045500  1
  O  941  1  0.03702300  0.88261500  0.67811400  1
  O  961  1  0.92885600  0.37777500  0.78810300  1
  O  963  1  0.97173300  0.38267900  0.83042200  1
  O  983  1  0.57982500  0.63102300  0.28806800  1
  O  985  1  0.53699500  0.62604500  0.33043400  1
  O  1005  1  0.42912900  0.13101500  0.22076300  1
  O  1007  1  0.47201500  0.12608400  0.17845600  1
  O  1027  1  0.92300100  0.29056700  0.36832300  1
  O  1029  1  0.96497400  0.33409600  0.37050700  1
  O  1049  1  0.58558900  0.71788700  0.86838200  1
  O  1051  1  0.54353700  0.67444000  0.87027800  1
  O  1071  1  0.08560800  0.79038300  0.14048100  1
  O  1073  1  0.04365900  0.83393400  0.13847700  1
  O  1093  1  0.42301100  0.21792200  0.64040100  1
  O  1095  1  0.46504600  0.17445700  0.63836900  1
  O  1115  1  0.36821800  0.92305000  0.29061400  1
  O  1117  1  0.37034600  0.96504800  0.33411600  1
  O  1137  1  0.86847000  0.58561100  0.71796800  1
  O  1139  1  0.87038500  0.54361300  0.67446500  1
  O  1159  1  0.14045100  0.08565500  0.79050600  1
  O  1161  1  0.13848700  0.04366000  0.83401000  1
  O  1181  1  0.64031000  0.42297100  0.21806100  1
  O  1183  1  0.63826000  0.46497000  0.17455700  1
  O  1203  1  0.29048000  0.36830500  0.92305000  1
  O  1205  1  0.33402000  0.37042900  0.96501400  1
  O  1225  1  0.71788700  0.86837600  0.58562400  1
  O  1227  1  0.67443600  0.87026500  0.54358000  1
  O  1247  1  0.79039800  0.14046700  0.08563600  1
  O  1249  1  0.83395500  0.13844700  0.04369500  1
  O  1269  1  0.21793500  0.64041000  0.42299500  1
  O  1271  1  0.17446700  0.63836900  0.46502800  1
  O  1291  1  0.04305300  0.17322300  0.89907900  1
  O  1293  1  0.08600100  0.21658400  0.89626100  1
  O  1313  1  0.46543000  0.83539500  0.39881400  1
  O  1315  1  0.42250600  0.79199300  0.39617500  1
  O  1335  1  0.54178400  0.33478000  0.10828200  1
  O  1337  1  0.58495700  0.29189800  0.11105900  1
  O  1357  1  0.96550500  0.67319700  0.60960200  1
  O  1359  1  0.92255900  0.71657900  0.61229900  1
  O  1379  1  0.67321500  0.60952400  0.96556600  1
  O  1381  1  0.71656800  0.61232400  0.92260100  1
  O  1401  1  0.33480000  0.10838500  0.54195000  1
  O  1403  1  0.29185100  0.11110100  0.58505700  1
  O  1423  1  0.83486100  0.40028400  0.46671200  1
  O  1425  1  0.79197000  0.39752100  0.42355300  1
  O  1445  1  0.17322200  0.89889100  0.04301100  1
  O  1447  1  0.21656100  0.89620100  0.08599800  1
  O  1467  1  0.10831300  0.54179600  0.33474600  1
  O  1469  1  0.11116400  0.58495000  0.29185300  1
  O  1489  1  0.60962900  0.96544100  0.67323700  1
  O  1491  1  0.61230100  0.92252500  0.71664600  1
  O  1511  1  0.89889400  0.04299100  0.17323300  1
  O  1513  1  0.89616700  0.08601200  0.21653100  1
  O  1533  1  0.39878800  0.46548600  0.83543300  1
  O  1535  1  0.39613900  0.42253500  0.79205300  1
