# generated using pymatgen
data_H10C15N4
_symmetry_space_group_name_H-M   'P 1'
_cell_length_a   37.27520000
_cell_length_b   45.79345814
_cell_length_c   45.79345814
_cell_angle_alpha   80.46541024
_cell_angle_beta   65.98394395
_cell_angle_gamma   65.98394395
_symmetry_Int_Tables_number   1
_chemical_formula_structural   H10C15N4
_chemical_formula_sum   'H640 C960 N256'
_cell_volume   65219.69708110
_cell_formula_units_Z   64
loop_
 _symmetry_equiv_pos_site_id
 _symmetry_equiv_pos_as_xyz
  1  'x, y, z'
loop_
 _atom_site_type_symbol
 _atom_site_label
 _atom_site_symmetry_multiplicity
 _atom_site_fract_x
 _atom_site_fract_y
 _atom_site_fract_z
 _atom_site_occupancy
  C  1  1  0.89141250  0.66933400  0.16322500  1
  C  2  1  0.89234700  0.67422700  0.12796800  1
  C  3  1  0.93573000  0.66804600  0.16054000  1
  C  4  1  0.97491600  0.64057750  0.13784050  1
  C  7  1  0.97259100  0.64533000  0.10369700  1
  C  8  1  0.92924250  0.64658600  0.10481300  1
  C  13  1  0.92378400  0.61485800  0.12107700  1
  C  14  1  0.92530300  0.60760350  0.15529350  1
  C  17  1  0.96855350  0.60834550  0.15172050  1
  C  20  1  0.88867950  0.63601350  0.17715550  1
  C  23  1  0.72323200  0.33216900  0.83677300  1
  C  24  1  0.69380800  0.32726200  0.87202600  1
  C  25  1  0.76357300  0.33345950  0.83946250  1
  C  26  1  0.75258550  0.36091850  0.86217450  1
  C  29  1  0.72087350  0.35615250  0.89631450  1
  C  30  1  0.67989950  0.35489200  0.89519500  1
  C  35  1  0.65896950  0.38662650  0.87894350  1
  C  36  1  0.68744400  0.39389750  0.84473250  1
  C  39  1  0.72786200  0.39315650  0.84830850  1
  C  42  1  0.70109950  0.36549700  0.82285700  1
  C  45  1  0.56001050  0.16395900  0.33142900  1
  C  46  1  0.56584500  0.12870300  0.32652800  1
  C  47  1  0.60303850  0.16127550  0.33271950  1
  C  48  1  0.61476050  0.13857300  0.36018300  1
  C  51  1  0.61719450  0.10442900  0.35542200  1
  C  52  1  0.57510450  0.10554200  0.35416400  1
  C  57  1  0.53792150  0.12179700  0.38589400  1
  C  58  1  0.53217700  0.15601150  0.39315850  1
  C  61  1  0.57616750  0.15244400  0.39241600  1
  C  64  1  0.52395700  0.17788000  0.36475300  1
  C  67  1  0.05463300  0.83750350  0.66859150  1
  C  68  1  0.02030900  0.87276100  0.67348600  1
  C  69  1  0.09626600  0.84019050  0.66730050  1
  C  70  1  0.11274850  0.86289050  0.63983250  1
  C  73  1  0.07628100  0.89703250  0.64458450  1
  C  74  1  0.03404500  0.89591550  0.64584650  1
  C  79  1  0.04485000  0.87965250  0.61411650  1
  C  80  1  0.08058650  0.84543750  0.60686050  1
  C  83  1  0.12026550  0.84901050  0.60759950  1
  C  86  1  0.06582750  0.82357500  0.63527200  1
  C  89  1  0.62357850  0.82773600  0.31538900  1
  C  90  1  0.62049750  0.86345850  0.30906050  1
  C  91  1  0.58077800  0.82764900  0.31623100  1
  C  92  1  0.54005450  0.85083250  0.34206450  1
  C  95  1  0.54026950  0.88547050  0.33514050  1
  C  96  1  0.58137600  0.88739450  0.33529150  1
  C  101  1  0.58636400  0.87427750  0.36795550  1
  C  102  1  0.58705200  0.83934350  0.37651550  1
  C  105  1  0.54517550  0.84017550  0.37515050  1
  C  108  1  0.62547250  0.81672300  0.34943400  1
  C  111  1  0.76602600  0.17377700  0.68456900  1
  C  112  1  0.79236050  0.13805350  0.69088250  1
  C  113  1  0.72398100  0.17384950  0.68373650  1
  C  114  1  0.73227800  0.15066850  0.65789950  1
  C  117  1  0.76022800  0.11603250  0.66480750  1
  C  118  1  0.80340700  0.11412150  0.66464650  1
  C  123  1  0.82791750  0.12725650  0.63198450  1
  C  124  1  0.80221050  0.16218800  0.62343700  1
  C  127  1  0.75980450  0.16134200  0.62481400  1
  C  130  1  0.79093200  0.18480350  0.65052250  1
  C  133  1  0.93899550  0.68532500  0.82698800  1
  C  134  1  0.92959800  0.69164350  0.86271050  1
  C  135  1  0.89702700  0.68449050  0.82690950  1
  C  136  1  0.88213800  0.65865450  0.85009150  1
  C  139  1  0.87544250  0.66556900  0.88472900  1
  C  140  1  0.91670700  0.66541050  0.88664550  1
  C  145  1  0.95435250  0.63274650  0.87351750  1
  C  146  1  0.96358650  0.62419450  0.83858450  1
  C  149  1  0.92033750  0.62557150  0.83942450  1
  C  152  1  0.97492650  0.65127800  0.81596900  1
  C  155  1  0.45058900  0.31615050  0.17303350  1
  C  156  1  0.48323650  0.30982600  0.13731000  1
  C  157  1  0.40770650  0.31699100  0.17311200  1
  C  158  1  0.39016900  0.34282450  0.14992950  1
  C  161  1  0.42502600  0.33590500  0.11529100  1
  C  162  1  0.46805250  0.33605650  0.11337250  1
  C  167  1  0.45991600  0.36872100  0.12649400  1
  C  168  1  0.42566400  0.37728100  0.16142700  1
  C  171  1  0.38462350  0.37591100  0.16059100  1
  C  174  1  0.44146350  0.35019800  0.18404600  1
  C  177  1  0.10859050  0.33214650  0.83677250  1
  C  178  1  0.10765700  0.32725400  0.87202800  1
  C  179  1  0.06427250  0.33343450  0.83945850  1
  C  180  1  0.02508650  0.36090400  0.86215900  1
  C  183  1  0.02741400  0.35615200  0.89630100  1
  C  184  1  0.07076500  0.35489450  0.89518350  1
  C  189  1  0.07622300  0.38662200  0.87891900  1
  C  190  1  0.07470000  0.39387700  0.84470600  1
  C  193  1  0.03145000  0.39313500  0.84827900  1
  C  196  1  0.11132100  0.36546850  0.82284250  1
  C  199  1  0.27676650  0.66931900  0.16322900  1
  C  200  1  0.30619000  0.67422850  0.12797450  1
  C  201  1  0.23642500  0.66803050  0.16053850  1
  C  202  1  0.24741300  0.64057100  0.13782600  1
  C  205  1  0.27912450  0.64533650  0.10368750  1
  C  206  1  0.32009900  0.64659600  0.10480800  1
  C  211  1  0.34102850  0.61486200  0.12106000  1
  C  212  1  0.31255500  0.60759050  0.15526950  1
  C  215  1  0.27213650  0.60833300  0.15169400  1
  C  218  1  0.29889750  0.63599400  0.17714500  1
  C  221  1  0.43998300  0.83752850  0.66857050  1
  C  222  1  0.43414950  0.87278250  0.67347450  1
  C  223  1  0.39695100  0.84021400  0.66728400  1
  C  224  1  0.38522650  0.86291950  0.63982150  1
  C  227  1  0.38279300  0.89706200  0.64458400  1
  C  228  1  0.42488700  0.89594750  0.64584050  1
  C  233  1  0.46206900  0.87969350  0.61410650  1
  C  234  1  0.46780950  0.84548250  0.60684150  1
  C  237  1  0.42381700  0.84905000  0.60758600  1
  C  240  1  0.47603200  0.82361000  0.63524400  1
  C  243  1  0.94536350  0.16397850  0.33140750  1
  C  244  1  0.97968300  0.12872200  0.32651600  1
  C  245  1  0.90372900  0.16129300  0.33270000  1
  C  246  1  0.88724100  0.13859700  0.36017100  1
  C  249  1  0.92370850  0.10445300  0.35541900  1
  C  250  1  0.96594500  0.10556900  0.35415900  1
  C  255  1  0.95514200  0.12183250  0.38588650  1
  C  256  1  0.91940900  0.15604750  0.39313950  1
  C  259  1  0.87972750  0.15247650  0.39240150  1
  C  262  1  0.93416850  0.17790750  0.36472650  1
  C  265  1  0.37642600  0.17375100  0.68460700  1
  C  266  1  0.37950800  0.13802700  0.69093800  1
  C  267  1  0.41922800  0.17383600  0.68376700  1
  C  268  1  0.45995200  0.15065150  0.65793450  1
  C  271  1  0.45973700  0.11601400  0.66486000  1
  C  272  1  0.41863100  0.11408800  0.66471100  1
  C  277  1  0.41364600  0.12720200  0.63204400  1
  C  278  1  0.41295950  0.16213600  0.62348100  1
  C  281  1  0.45483400  0.16130450  0.62484850  1
  C  284  1  0.37453850  0.18475700  0.65056000  1
  C  287  1  0.23397600  0.82771400  0.31543000  1
  C  288  1  0.20764300  0.86343850  0.30911350  1
  C  289  1  0.27602150  0.82764050  0.31626250  1
  C  290  1  0.26772600  0.85082200  0.34209800  1
  C  293  1  0.23977800  0.88545900  0.33518800  1
  C  294  1  0.19659850  0.88737200  0.33534800  1
  C  299  1  0.17208600  0.87423850  0.36801150  1
  C  300  1  0.19778800  0.83930700  0.37656200  1
  C  303  1  0.24019700  0.84015200  0.37518400  1
  C  306  1  0.20907000  0.81669100  0.34947400  1
  C  309  1  0.06100350  0.31615700  0.17301200  1
  C  310  1  0.07040050  0.30983850  0.13728850  1
  C  311  1  0.10297200  0.31699150  0.17309050  1
  C  312  1  0.11786100  0.34282600  0.14990900  1
  C  315  1  0.12455250  0.33591550  0.11527150  1
  C  316  1  0.08329100  0.33607200  0.11335600  1
  C  321  1  0.04564400  0.36873550  0.12648450  1
  C  322  1  0.03640900  0.37728900  0.16141700  1
  C  325  1  0.07965850  0.37591100  0.16057900  1
  C  328  1  0.02507150  0.35020250  0.18403250  1
  C  331  1  0.54940450  0.68533850  0.82696750  1
  C  332  1  0.51675850  0.69166450  0.86269050  1
  C  333  1  0.59228950  0.68449950  0.82688650  1
  C  334  1  0.60982600  0.65866500  0.85007100  1
  C  337  1  0.57497100  0.66558350  0.88470650  1
  C  338  1  0.53194350  0.66543200  0.88662700  1
  C  343  1  0.54007900  0.63276800  0.87350700  1
  C  344  1  0.57433050  0.62420850  0.83857350  1
  C  347  1  0.61537100  0.62557750  0.83940850  1
  C  350  1  0.55852850  0.65129200  0.81595500  1
  C  705  1  0.85247100  0.69550800  0.18450000  1
  C  706  1  0.81135800  0.69888900  0.18769500  1
  C  708  1  0.77656800  0.74111200  0.22516300  1
  C  709  1  0.81607300  0.73964650  0.22335350  1
  C  710  1  0.85366500  0.71698150  0.20291550  1
  C  712  1  0.73895100  0.76305600  0.24613100  1
  C  713  1  0.66364300  0.80591950  0.29032150  1
  C  714  1  0.70434050  0.80407400  0.28664900  1
  C  717  1  0.74194000  0.78288200  0.26488100  1
  C  721  1  0.66358200  0.78550750  0.27013150  1
  C  723  1  0.73175050  0.30600300  0.81548500  1
  C  724  1  0.69721900  0.30261700  0.81228500  1
  C  726  1  0.74213300  0.26039250  0.77481750  1
  C  727  1  0.77835800  0.26186150  0.77663250  1
  C  728  1  0.77283600  0.28452200  0.79708100  1
  C  730  1  0.74743600  0.23844900  0.75384500  1
  C  731  1  0.75919750  0.19559400  0.70963700  1
  C  732  1  0.79437300  0.19744700  0.71331100  1
  C  735  1  0.78900600  0.21863250  0.73508950  1
  C  739  1  0.71853150  0.21598900  0.72983900  1
  C  741  1  0.54724400  0.18523950  0.30525650  1
  C  742  1  0.50951700  0.18843100  0.30186900  1
  C  744  1  0.51693650  0.22592050  0.25966450  1
  C  745  1  0.55497750  0.22410700  0.26113000  1
  C  746  1  0.56990900  0.20365850  0.28378750  1
  C  748  1  0.50126200  0.24689450  0.23772350  1
  C  749  1  0.46882700  0.29108750  0.19485250  1
  C  750  1  0.50766650  0.28742350  0.19671650  1
  C  753  1  0.52408100  0.26564500  0.21790000  1
  C  757  1  0.44834500  0.27090500  0.21527200  1
  C  759  1  0.03697300  0.81622550  0.69476550  1
  C  760  1  0.99904850  0.81303450  0.69815450  1
  C  762  1  0.00173900  0.77556350  0.74037150  1
  C  763  1  0.03943500  0.77737400  0.73890300  1
  C  764  1  0.05658000  0.79781650  0.71624250  1
  C  766  1  0.98509800  0.75458750  0.76231350  1
  C  767  1  0.95399050  0.71038900  0.80517000  1
  C  768  1  0.99102600  0.71405400  0.80331400  1
  C  771  1  0.00684050  0.73583850  0.78213750  1
  C  775  1  0.93372600  0.73059000  0.78477200  1
  C  777  1  0.14753050  0.30597200  0.81549700  1
  C  778  1  0.18864450  0.30259150  0.81230350  1
  C  780  1  0.22343600  0.26037200  0.77483100  1
  C  781  1  0.18393250  0.26183750  0.77663950  1
  C  782  1  0.14633950  0.28449900  0.79708000  1
  C  784  1  0.26105350  0.23843050  0.75386150  1
  C  785  1  0.33636300  0.19556900  0.70967100  1
  C  786  1  0.29566500  0.19741300  0.71334400  1
  C  789  1  0.25806450  0.21860350  0.73511150  1
  C  793  1  0.33642350  0.21597850  0.72986150  1
  C  795  1  0.26824700  0.69548850  0.18451550  1
  C  796  1  0.30277900  0.69887350  0.18771550  1
  C  798  1  0.25786850  0.74109800  0.22518100  1
  C  799  1  0.22164300  0.73962800  0.22336800  1
  C  800  1  0.22716200  0.71696900  0.20292000  1
  C  802  1  0.25256450  0.76304250  0.24615450  1
  C  803  1  0.24080350  0.80589650  0.29036150  1
  C  804  1  0.20562750  0.80404400  0.28668700  1
  C  807  1  0.21099400  0.78285950  0.26491050  1
  C  811  1  0.28146800  0.78550050  0.27016150  1
  C  813  1  0.45275050  0.81624750  0.69474150  1
  C  814  1  0.49047900  0.81305300  0.69812800  1
  C  816  1  0.48305950  0.77556500  0.74033300  1
  C  817  1  0.44501650  0.77738150  0.73887050  1
  C  818  1  0.43008450  0.79782950  0.71621150  1
  C  820  1  0.49873350  0.75459200  0.76227500  1
  C  821  1  0.53116750  0.71040350  0.80514650  1
  C  822  1  0.49232650  0.71406700  0.80328500  1
  C  825  1  0.47591200  0.73584450  0.78210150  1
  C  829  1  0.55165000  0.73058250  0.78472750  1
  C  831  1  0.96302400  0.18525600  0.30523500  1
  C  832  1  0.00094700  0.18844750  0.30184750  1
  C  834  1  0.99826200  0.22591650  0.25962550  1
  C  835  1  0.96056500  0.22410750  0.26109550  1
  C  836  1  0.94341850  0.20366450  0.28375650  1
  C  838  1  0.01490250  0.24689000  0.23768500  1
  C  839  1  0.04600750  0.29109200  0.19482900  1
  C  840  1  0.00897300  0.28742550  0.19668550  1
  C  843  1  0.99315950  0.26564100  0.21786000  1
  C  847  1  0.06627400  0.27088850  0.21522750  1
  C  993  1  0.01688050  0.64066350  0.13594250  1
  C  994  1  0.04763700  0.61363150  0.14414150  1
  C  996  1  0.09404150  0.64055150  0.13437650  1
  C  997  1  0.06597000  0.66850100  0.12526300  1
  C  998  1  0.02784350  0.66814250  0.12596250  1
  C  1000  1  0.13177050  0.64055050  0.13437050  1
  C  1001  1  0.20726400  0.64065550  0.13592650  1
  C  1002  1  0.17880300  0.66813450  0.12594350  1
  C  1005  1  0.14101100  0.66849600  0.12525500  1
  C  1009  1  0.19533950  0.61362250  0.14412250  1
  C  1011  1  0.79273450  0.36083250  0.86407650  1
  C  1012  1  0.80465900  0.38786500  0.85588100  1
  C  1014  1  0.86822450  0.36093750  0.86563650  1
  C  1015  1  0.85898600  0.33299000  0.87475200  1
  C  1016  1  0.82119600  0.33335300  0.87405800  1
  C  1018  1  0.90595400  0.36093500  0.86563200  1
  C  1019  1  0.98312250  0.36081900  0.86405700  1
  C  1020  1  0.97215250  0.33334350  0.87404650  1
  C  1023  1  0.93402650  0.33298650  0.87474450  1
  C  1027  1  0.95236000  0.38785500  0.85586500  1
  C  1029  1  0.65680900  0.13667800  0.36009600  1
  C  1030  1  0.66053300  0.14488200  0.38712700  1
  C  1032  1  0.73385450  0.13512950  0.36020050  1
  C  1033  1  0.73373400  0.12600500  0.33225700  1
  C  1034  1  0.69525300  0.12669500  0.33261700  1
  C  1036  1  0.77157850  0.13513350  0.36020050  1
  C  1037  1  0.84717550  0.13669950  0.36008650  1
  C  1038  1  0.84619450  0.12671000  0.33261000  1
  C  1041  1  0.80876600  0.12601150  0.33225350  1
  C  1045  1  0.80821500  0.14490650  0.38711750  1
  C  1047  1  0.15281650  0.86478800  0.63991600  1
  C  1048  1  0.19177250  0.85658700  0.61288700  1
  C  1050  1  0.22840900  0.86635850  0.63980450  1
  C  1051  1  0.19122350  0.87547500  0.66775100  1
  C  1052  1  0.15379550  0.87477600  0.66739400  1
  C  1054  1  0.26613450  0.86636300  0.63980300  1
  C  1055  1  0.34317700  0.86481500  0.63990800  1
  C  1056  1  0.30473450  0.87479550  0.66738750  1
  C  1059  1  0.26625200  0.87548950  0.66774750  1
  C  1063  1  0.33945250  0.85661200  0.61287800  1
  C  1065  1  0.49954900  0.85028950  0.34153250  1
  C  1066  1  0.46883600  0.84223000  0.36870500  1
  C  1068  1  0.42348000  0.85010900  0.34133900  1
  C  1069  1  0.45192050  0.85855200  0.31312800  1
  C  1070  1  0.48960050  0.85855500  0.31356900  1
  C  1072  1  0.38576150  0.85010750  0.34134350  1
  C  1073  1  0.30930750  0.85028600  0.34155700  1
  C  1074  1  0.33894800  0.85855250  0.31358850  1
  C  1077  1  0.37707600  0.85855100  0.31313700  1
  C  1081  1  0.32092000  0.84222750  0.36872550  1
  C  1083  1  0.69069800  0.15120150  0.65844050  1
  C  1084  1  0.67908350  0.15926000  0.63127400  1
  C  1086  1  0.61424150  0.15138300  0.65865500  1
  C  1087  1  0.62292900  0.14293900  0.68686100  1
  C  1088  1  0.66105650  0.14293600  0.68641000  1
  C  1090  1  0.57652150  0.15138400  0.65866200  1
  C  1091  1  0.50045650  0.15119600  0.65846700  1
  C  1092  1  0.51040150  0.14293750  0.68643150  1
  C  1095  1  0.54808100  0.14294050  0.68687250  1
  C  1099  1  0.53116700  0.15926100  0.63129500  1
  C  1101  1  0.84109600  0.65919350  0.84955050  1
  C  1102  1  0.83754900  0.63202400  0.84148800  1
  C  1104  1  0.76482750  0.65940050  0.84936650  1
  C  1105  1  0.76506450  0.68760750  0.85781150  1
  C  1106  1  0.80318500  0.68715950  0.85781850  1
  C  1108  1  0.72711300  0.65940100  0.84936200  1
  C  1109  1  0.65086950  0.65920050  0.84953450  1
  C  1110  1  0.65254800  0.68716500  0.85780100  1
  C  1113  1  0.69022650  0.68761100  0.85780100  1
  C  1117  1  0.68964600  0.63202750  0.84147750  1
  C  1119  1  0.34912550  0.34228950  0.15046450  1
  C  1120  1  0.31034800  0.36945850  0.15852550  1
  C  1122  1  0.27288350  0.34208500  0.15063900  1
  C  1123  1  0.30977200  0.31387650  0.14219650  1
  C  1124  1  0.34744950  0.31432200  0.14219800  1
  C  1126  1  0.23517050  0.34208450  0.15063350  1
  C  1127  1  0.15890100  0.34228950  0.15044950  1
  C  1128  1  0.19681300  0.31432400  0.14218200  1
  C  1131  1  0.23493300  0.31387700  0.14218900  1
  C  1135  1  0.16244900  0.36946000  0.15851000  1
  C  1281  1  0.91040350  0.66905150  0.92109450  1
  C  1282  1  0.89995250  0.64582900  0.94404100  1
  C  1284  1  0.91188350  0.66496950  0.98288450  1
  C  1285  1  0.91960950  0.69041650  0.96276550  1
  C  1286  1  0.91857750  0.69228100  0.93197600  1
  C  1288  1  0.91624100  0.66105600  0.01243600  1
  C  1289  1  0.92644900  0.65140750  0.07180450  1
  C  1290  1  0.93111650  0.67828850  0.05217550  1
  C  1293  1  0.92676900  0.68312650  0.02225050  1
  C  1297  1  0.91693400  0.63026000  0.05914300  1
  C  1299  1  0.49983700  0.33238650  0.07892150  1
  C  1300  1  0.48912400  0.35563750  0.05598650  1
  C  1302  1  0.55902000  0.33648450  0.01712750  1
  C  1303  1  0.57208200  0.31103700  0.03724600  1
  C  1304  1  0.54212650  0.30916500  0.06803500  1
  C  1306  1  0.58901000  0.34040100  0.98757300  1
  C  1307  1  0.64891850  0.35005450  0.92819850  1
  C  1308  1  0.66085550  0.32318650  0.94783350  1
  C  1311  1  0.63142900  0.31834300  0.97776100  1
  C  1315  1  0.60559400  0.37119450  0.94086250  1
  C  1317  1  0.57870250  0.92184850  0.33162150  1
  C  1318  1  0.54503250  0.94479250  0.35485350  1
  C  1320  1  0.57613900  0.98361850  0.33575050  1
  C  1321  1  0.60931150  0.96350450  0.31030050  1
  C  1322  1  0.61013600  0.93272150  0.30842250  1
  C  1324  1  0.57658650  0.01316450  0.33967550  1
  C  1325  1  0.57713850  0.07253300  0.34933300  1
  C  1326  1  0.60869400  0.05290550  0.32245650  1
  C  1329  1  0.60918650  0.02298150  0.31761050  1
  C  1333  1  0.54646750  0.05987300  0.37047100  1
  C  1335  1  0.83156350  0.07967250  0.66828250  1
  C  1336  1  0.84407500  0.05673450  0.64504350  1
  C  1338  1  0.89480200  0.01786900  0.66421100  1
  C  1339  1  0.88241750  0.03798850  0.68965650  1
  C  1340  1  0.85060350  0.06878350  0.69151850  1
  C  1342  1  0.92869600  0.98831000  0.66030500  1
  C  1343  1  0.99823950  0.92892550  0.65067350  1
  C  1344  1  0.98329300  0.94855900  0.67754600  1
  C  1347  1  0.94902950  0.97848650  0.68238250  1
  C  1351  1  0.97606800  0.94159000  0.62952400  1
  C  1353  1  0.08959050  0.33243200  0.07890800  1
  C  1354  1  0.10002950  0.35566100  0.05596300  1
  C  1356  1  0.08811850  0.33651250  0.01711350  1
  C  1357  1  0.08039100  0.31106550  0.03723350  1
  C  1358  1  0.08142000  0.30920300  0.06802300  1
  C  1360  1  0.08376300  0.34042650  0.98756150  1
  C  1361  1  0.07356050  0.35007050  0.92819250  1
  C  1362  1  0.06889050  0.32319250  0.94782250  1
  C  1365  1  0.07323550  0.31835400  0.97774700  1
  C  1369  1  0.08307450  0.37121800  0.94085400  1
  C  1371  1  0.50016000  0.66910250  0.92107950  1
  C  1372  1  0.51087350  0.64585150  0.94401350  1
  C  1374  1  0.44097750  0.66500400  0.98287400  1
  C  1375  1  0.42791550  0.69045050  0.96275550  1
  C  1376  1  0.45787100  0.69232250  0.93196550  1
  C  1378  1  0.41098800  0.66108750  0.01242650  1
  C  1379  1  0.35107800  0.65143450  0.07180350  1
  C  1380  1  0.33914250  0.67830300  0.05216800  1
  C  1383  1  0.36856850  0.68314500  0.02224200  1
  C  1387  1  0.39440550  0.63029300  0.05913800  1
  C  1389  1  0.42130250  0.07963600  0.66838400  1
  C  1390  1  0.45497400  0.05668850  0.64515450  1
  C  1392  1  0.42386100  0.01786650  0.66425750  1
  C  1393  1  0.39068950  0.03798150  0.68970550  1
  C  1394  1  0.38986850  0.06876350  0.69158150  1
  C  1396  1  0.42341350  0.98832000  0.66033200  1
  C  1397  1  0.42285600  0.92895450  0.65067150  1
  C  1398  1  0.39130000  0.94858400  0.67755000  1
  C  1401  1  0.39080950  0.97850600  0.68239600  1
  C  1405  1  0.45352800  0.94161350  0.62953650  1
  C  1407  1  0.16844650  0.92182100  0.33171100  1
  C  1408  1  0.15594700  0.94476200  0.35494300  1
  C  1410  1  0.10520000  0.98361950  0.33578550  1
  C  1411  1  0.11758700  0.96350050  0.31033850  1
  C  1412  1  0.14940300  0.93270900  0.30847400  1
  C  1414  1  0.07129850  0.01317500  0.33969700  1
  C  1415  1  0.00174900  0.07255950  0.34933150  1
  C  1416  1  0.01669700  0.05292450  0.32245850  1
  C  1419  1  0.05096400  0.02299800  0.31762100  1
  C  1423  1  0.02392250  0.05989100  0.37048100  1
  C  1569  1  0.00126100  0.41012000  0.17258700  1
  C  1570  1  0.97407150  0.42757900  0.15584100  1
  C  1572  1  0.95209500  0.47634850  0.18141850  1
  C  1573  1  0.97410950  0.46027450  0.20181750  1
  C  1574  1  0.99664850  0.42693450  0.19829150  1
  C  1576  1  0.93599500  0.50989400  0.18064500  1
  C  1577  1  0.92177900  0.57542450  0.16828550  1
  C  1578  1  0.93376400  0.55977550  0.19439150  1
  C  1581  1  0.94268800  0.52674200  0.19989800  1
  C  1585  1  0.91075100  0.55743500  0.15309500  1
  C  1587  1  0.58318150  0.59137750  0.82739950  1
  C  1588  1  0.55668700  0.57393050  0.84414050  1
  C  1590  1  0.60907700  0.52515800  0.81857500  1
  C  1591  1  0.63538350  0.54124250  0.79814250  1
  C  1592  1  0.62104500  0.57458700  0.80165000  1
  C  1594  1  0.62574650  0.49161200  0.81937400  1
  C  1595  1  0.66472450  0.42608650  0.83175750  1
  C  1596  1  0.68715550  0.44173850  0.80564650  1
  C  1599  1  0.66854300  0.47476850  0.80011850  1
  C  1603  1  0.62053150  0.44409250  0.84698250  1
  C  1605  1  0.41065300  0.17329450  0.59064250  1
  C  1606  1  0.40082150  0.15658450  0.57322450  1
  C  1608  1  0.42768800  0.18212650  0.52444450  1
  C  1609  1  0.43358800  0.20254550  0.54052150  1
  C  1610  1  0.42271800  0.19906900  0.57387100  1
  C  1612  1  0.44516200  0.18132900  0.49090000  1
  C  1613  1  0.49646850  0.16899200  0.42534000  1
  C  1614  1  0.49284950  0.19504850  0.44103150  1
  C  1617  1  0.46869000  0.20059400  0.47405400  1
  C  1621  1  0.46752500  0.15374950  0.44336250  1
  C  1623  1  0.17381800  0.82813850  0.40940050  1
  C  1624  1  0.12986350  0.84484650  0.42683050  1
  C  1626  1  0.13348700  0.81927650  0.47559550  1
  C  1627  1  0.17589850  0.79887850  0.45952150  1
  C  1628  1  0.19490300  0.80237800  0.42617400  1
  C  1630  1  0.11663300  0.82006600  0.50914100  1
  C  1631  1  0.09004800  0.83243650  0.57468750  1
  C  1632  1  0.12815250  0.80634550  0.55902150  1
  C  1635  1  0.14256700  0.80080100  0.52599700  1
  C  1639  1  0.06387850  0.84766350  0.55666750  1
  C  1641  1  0.50351200  0.83250350  0.57465750  1
  C  1642  1  0.53242750  0.84776500  0.55662200  1
  C  1644  1  0.55483000  0.82016150  0.50909650  1
  C  1645  1  0.53129400  0.80090100  0.52594100  1
  C  1646  1  0.50713050  0.80644700  0.55896400  1
  C  1648  1  0.57231900  0.81935350  0.47555150  1
  C  1649  1  0.58936200  0.82818100  0.40935200  1
  C  1650  1  0.57729150  0.80240950  0.42612450  1
  C  1653  1  0.56641550  0.79893600  0.45947600  1
  C  1657  1  0.59919700  0.84488750  0.42677050  1
  C  1659  1  0.90994750  0.16905200  0.42531100  1
  C  1660  1  0.93611850  0.15382600  0.44333100  1
  C  1662  1  0.88336350  0.18142800  0.49085600  1
  C  1663  1  0.85742850  0.20069000  0.47400100  1
  C  1664  1  0.87184400  0.19514200  0.44097700  1
  C  1666  1  0.86650950  0.18222050  0.52440250  1
  C  1667  1  0.82618050  0.17335900  0.59059900  1
  C  1668  1  0.80509550  0.19911800  0.57382300  1
  C  1671  1  0.82409900  0.20261600  0.54047500  1
  C  1675  1  0.87013600  0.15665250  0.57316750  1
  C  1677  1  0.07822600  0.42605700  0.83171200  1
  C  1678  1  0.08925100  0.44404700  0.84690400  1
  C  1680  1  0.06400600  0.49158800  0.81935500  1
  C  1681  1  0.05731450  0.47474050  0.80010050  1
  C  1682  1  0.06624050  0.44170600  0.80560600  1
  C  1684  1  0.04790300  0.52513450  0.81858350  1
  C  1685  1  0.99873400  0.59136050  0.82741750  1
  C  1686  1  0.00334900  0.57454700  0.80171100  1
  C  1689  1  0.02588900  0.54120750  0.79818450  1
  C  1693  1  0.02592300  0.57390300  0.84416300  1
  C  1695  1  0.33527150  0.57540400  0.16824600  1
  C  1696  1  0.37946800  0.55739650  0.15301850  1
  C  1698  1  0.37424900  0.50987750  0.18062850  1
  C  1699  1  0.33145200  0.52672200  0.19988400  1
  C  1700  1  0.31284150  0.55975100  0.19435600  1
  C  1702  1  0.39091700  0.47633150  0.18142550  1
  C  1703  1  0.41681300  0.41011150  0.17260050  1
  C  1704  1  0.37894900  0.42690100  0.19835000  1
  C  1707  1  0.36461000  0.46024800  0.20185800  1
  C  1711  1  0.44330850  0.42755800  0.15586100  1
  C  1857  1  0.90353450  0.17910000  0.14632100  1
  C  1858  1  0.90446900  0.18399300  0.11106400  1
  C  1859  1  0.94785200  0.17781200  0.14363600  1
  C  1860  1  0.98703800  0.15034350  0.12093650  1
  C  1863  1  0.98471300  0.15509600  0.08679300  1
  C  1864  1  0.94136450  0.15635200  0.08790900  1
  C  1869  1  0.93590600  0.12462400  0.10417300  1
  C  1870  1  0.93742500  0.11736960  0.13838940  1
  C  1873  1  0.98067550  0.11811161  0.13481639  1
  C  1876  1  0.90080150  0.14577961  0.16025139  1
  C  1879  1  0.73535400  0.84193500  0.81986900  1
  C  1880  1  0.70593000  0.83702811  0.85512189  1
  C  1881  1  0.77569500  0.84322550  0.82255850  1
  C  1882  1  0.76470750  0.87068450  0.84527050  1
  C  1885  1  0.73299550  0.86591861  0.87941039  1
  C  1886  1  0.69202150  0.86465811  0.87829089  1
  C  1891  1  0.67109150  0.89639250  0.86203950  1
  C  1892  1  0.69956600  0.90366350  0.82782850  1
  C  1895  1  0.73998400  0.90292250  0.83140450  1
  C  1898  1  0.71322150  0.87526300  0.80595300  1
  C  1901  1  0.57213271  0.67372480  0.31452480  1
  C  1902  1  0.57796720  0.63846880  0.30962380  1
  C  1903  1  0.61516071  0.67104129  0.31581530  1
  C  1904  1  0.62688270  0.64833880  0.34327879  1
  C  1907  1  0.62931670  0.61419480  0.33851780  1
  C  1908  1  0.58722670  0.61530780  0.33725980  1
  C  1913  1  0.55004350  0.63156300  0.36899000  1
  C  1914  1  0.54429900  0.66577750  0.37625450  1
  C  1917  1  0.58828950  0.66221000  0.37551200  1
  C  1920  1  0.53607900  0.68764600  0.34784900  1
  C  1923  1  0.06675521  0.34726929  0.65168729  1
  C  1924  1  0.03243100  0.38252700  0.65658200  1
  C  1925  1  0.10838800  0.34995650  0.65039650  1
  C  1926  1  0.12487070  0.37265630  0.62292829  1
  C  1929  1  0.08840300  0.40679850  0.62768050  1
  C  1930  1  0.04616700  0.40568150  0.62894250  1
  C  1935  1  0.05697220  0.38941830  0.59721229  1
  C  1936  1  0.09270870  0.35520330  0.58995630  1
  C  1939  1  0.13238770  0.35877630  0.59069530  1
  C  1942  1  0.07794970  0.33334080  0.61836780  1
  C  1945  1  0.63570030  0.33750200  0.29848500  1
  C  1946  1  0.63261930  0.37322450  0.29215650  1
  C  1947  1  0.59289980  0.33741500  0.29932700  1
  C  1948  1  0.55217650  0.36059850  0.32516050  1
  C  1951  1  0.55239130  0.39523650  0.31823650  1
  C  1952  1  0.59349780  0.39716050  0.31838750  1
  C  1957  1  0.59848580  0.38404350  0.35105150  1
  C  1958  1  0.59917380  0.34910961  0.35961139  1
  C  1961  1  0.55729730  0.34994161  0.35824639  1
  C  1964  1  0.63759430  0.32648911  0.33252989  1
  C  1967  1  0.77814780  0.68354300  0.66766500  1
  C  1968  1  0.80448230  0.64781960  0.67397840  1
  C  1969  1  0.73610280  0.68361550  0.66683250  1
  C  1970  1  0.74440000  0.66043450  0.64099550  1
  C  1973  1  0.77234980  0.62579860  0.64790340  1
  C  1974  1  0.81552880  0.62388760  0.64774240  1
  C  1979  1  0.84003930  0.63702250  0.61508050  1
  C  1980  1  0.81433230  0.67195400  0.60653300  1
  C  1983  1  0.77192630  0.67110800  0.60791000  1
  C  1986  1  0.80305380  0.69456950  0.63361850  1
  C  1989  1  0.95111730  0.19509100  0.81008400  1
  C  1990  1  0.94171980  0.20140950  0.84580650  1
  C  1991  1  0.90914880  0.19425650  0.81000550  1
  C  1992  1  0.89426000  0.16842050  0.83318750  1
  C  1995  1  0.88756430  0.17533500  0.86782500  1
  C  1996  1  0.92882880  0.17517650  0.86974150  1
  C  2001  1  0.96647451  0.14251229  0.85661329  1
  C  2002  1  0.97570850  0.13396030  0.82168030  1
  C  2005  1  0.93245950  0.13533730  0.82252030  1
  C  2008  1  0.98704850  0.16104380  0.79906480  1
  C  2011  1  0.46271101  0.82591630  0.15612930  1
  C  2012  1  0.49535850  0.81959180  0.12040580  1
  C  2013  1  0.41982851  0.82675680  0.15620780  1
  C  2014  1  0.40229120  0.85259029  0.13302529  1
  C  2017  1  0.43714800  0.84567080  0.09838680  1
  C  2018  1  0.48017450  0.84582230  0.09646830  1
  C  2023  1  0.47203800  0.87848679  0.10958980  1
  C  2024  1  0.43778580  0.88704700  0.14452300  1
  C  2027  1  0.39674530  0.88567700  0.14368700  1
  C  2030  1  0.45358530  0.85996400  0.16714200  1
  C  2033  1  0.12071230  0.84191250  0.81986850  1
  C  2034  1  0.11977880  0.83702011  0.85512389  1
  C  2035  1  0.07639430  0.84320050  0.82255450  1
  C  2036  1  0.03720850  0.87067000  0.84525500  1
  C  2039  1  0.03953580  0.86591811  0.87939689  1
  C  2040  1  0.08288680  0.86466061  0.87827939  1
  C  2045  1  0.08834480  0.89638800  0.86201500  1
  C  2046  1  0.08682180  0.90364300  0.82780200  1
  C  2049  1  0.04357180  0.90290100  0.83137500  1
  C  2052  1  0.12344280  0.87523450  0.80593850  1
  C  2055  1  0.28888830  0.17908500  0.14632500  1
  C  2056  1  0.31831180  0.18399450  0.11107050  1
  C  2057  1  0.24854680  0.17779650  0.14363450  1
  C  2058  1  0.25953500  0.15033700  0.12092200  1
  C  2061  1  0.29124630  0.15510250  0.08678350  1
  C  2062  1  0.33222080  0.15636200  0.08790400  1
  C  2067  1  0.35315030  0.12462800  0.10415600  1
  C  2068  1  0.32467680  0.11735660  0.13836540  1
  C  2071  1  0.28425830  0.11809911  0.13478989  1
  C  2074  1  0.31101930  0.14576011  0.16024089  1
  C  2077  1  0.45210501  0.34729429  0.65166629  1
  C  2078  1  0.44627130  0.38254850  0.65657050  1
  C  2079  1  0.40907280  0.34998000  0.65038000  1
  C  2080  1  0.39734871  0.37268530  0.62291730  1
  C  2083  1  0.39491480  0.40682800  0.62768000  1
  C  2084  1  0.43700880  0.40571350  0.62893650  1
  C  2089  1  0.47419100  0.38945929  0.59720230  1
  C  2090  1  0.47993150  0.35524830  0.58993730  1
  C  2093  1  0.43593900  0.35881580  0.59068180  1
  C  2096  1  0.48815400  0.33337580  0.61833980  1
  C  2099  1  0.95748550  0.67374430  0.31450330  1
  C  2100  1  0.99180500  0.63848780  0.30961180  1
  C  2101  1  0.91585100  0.67105880  0.31579579  1
  C  2102  1  0.89936320  0.64836280  0.34326680  1
  C  2105  1  0.93583050  0.61421880  0.33851480  1
  C  2106  1  0.97806700  0.61533480  0.33725480  1
  C  2111  1  0.96726380  0.63159850  0.36898250  1
  C  2112  1  0.93153080  0.66581350  0.37623550  1
  C  2115  1  0.89184930  0.66224250  0.37549750  1
  C  2118  1  0.94629030  0.68767350  0.34782250  1
  C  2121  1  0.38854800  0.68351700  0.66770300  1
  C  2122  1  0.39163000  0.64779310  0.67403390  1
  C  2123  1  0.43135000  0.68360200  0.66686300  1
  C  2124  1  0.47207400  0.66041750  0.64103050  1
  C  2127  1  0.47185900  0.62578010  0.64795590  1
  C  2128  1  0.43075300  0.62385410  0.64780690  1
  C  2133  1  0.42576800  0.63696800  0.61514000  1
  C  2134  1  0.42508150  0.67190200  0.60657700  1
  C  2137  1  0.46695600  0.67107050  0.60794450  1
  C  2140  1  0.38666050  0.69452300  0.63365600  1
  C  2143  1  0.24609800  0.33748000  0.29852600  1
  C  2144  1  0.21976500  0.37320450  0.29220950  1
  C  2145  1  0.28814350  0.33740650  0.29935850  1
  C  2146  1  0.27984800  0.36058800  0.32519400  1
  C  2149  1  0.25190000  0.39522500  0.31828400  1
  C  2150  1  0.20872050  0.39713800  0.31844400  1
  C  2155  1  0.18420800  0.38400450  0.35110750  1
  C  2156  1  0.20991000  0.34907311  0.35965789  1
  C  2159  1  0.25231900  0.34991811  0.35827989  1
  C  2162  1  0.22119200  0.32645711  0.33256989  1
  C  2165  1  0.07312570  0.82592279  0.15610780  1
  C  2166  1  0.08252270  0.81960430  0.12038430  1
  C  2167  1  0.11509421  0.82675730  0.15618629  1
  C  2168  1  0.12998321  0.85259180  0.13300479  1
  C  2171  1  0.13667470  0.84568130  0.09836730  1
  C  2172  1  0.09541320  0.84583780  0.09645180  1
  C  2177  1  0.05776621  0.87850130  0.10958029  1
  C  2178  1  0.04853100  0.88705500  0.14451300  1
  C  2181  1  0.09178050  0.88567700  0.14367500  1
  C  2184  1  0.03719350  0.85996850  0.16712850  1
  C  2187  1  0.56152650  0.19510450  0.81006350  1
  C  2188  1  0.52888050  0.20143050  0.84578650  1
  C  2189  1  0.60441150  0.19426550  0.80998250  1
  C  2190  1  0.62194800  0.16843100  0.83316700  1
  C  2193  1  0.58709300  0.17534950  0.86780250  1
  C  2194  1  0.54406550  0.17519800  0.86972300  1
  C  2199  1  0.55220121  0.14253379  0.85660279  1
  C  2200  1  0.58645270  0.13397430  0.82166930  1
  C  2203  1  0.62749320  0.13534330  0.82250430  1
  C  2206  1  0.57065070  0.16105780  0.79905080  1
  C  2561  1  0.86459300  0.20527400  0.16759600  1
  C  2562  1  0.82348000  0.20865500  0.17079100  1
  C  2564  1  0.78869000  0.25087800  0.20825900  1
  C  2565  1  0.82819500  0.24941250  0.20644950  1
  C  2566  1  0.86578700  0.22674750  0.18601150  1
  C  2568  1  0.75107300  0.27282200  0.22922700  1
  C  2569  1  0.67576480  0.31568550  0.27341750  1
  C  2570  1  0.71646250  0.31384000  0.26974500  1
  C  2573  1  0.75406200  0.29264800  0.24797700  1
  C  2577  1  0.67570380  0.29527350  0.25322750  1
  C  2579  1  0.74387250  0.81576900  0.79858100  1
  C  2580  1  0.70934100  0.81238300  0.79538100  1
  C  2582  1  0.75425500  0.77015850  0.75791350  1
  C  2583  1  0.79048000  0.77162750  0.75972850  1
  C  2584  1  0.78495800  0.79428800  0.78017700  1
  C  2586  1  0.75955800  0.74821500  0.73694100  1
  C  2587  1  0.77131930  0.70536000  0.69273300  1
  C  2588  1  0.80649500  0.70721300  0.69640700  1
  C  2591  1  0.80112800  0.72839850  0.71818550  1
  C  2595  1  0.73065330  0.72575500  0.71293500  1
  C  2597  1  0.55936621  0.69500530  0.28835229  1
  C  2598  1  0.52163921  0.69819680  0.28496479  1
  C  2600  1  0.52905870  0.73568630  0.24276030  1
  C  2601  1  0.56709970  0.73387280  0.24422580  1
  C  2602  1  0.58203121  0.71342430  0.26688329  1
  C  2604  1  0.51338420  0.75666030  0.22081930  1
  C  2605  1  0.48094900  0.80085330  0.17794830  1
  C  2606  1  0.51978870  0.79718930  0.17981230  1
  C  2609  1  0.53620320  0.77541080  0.20099580  1
  C  2613  1  0.46046700  0.78067080  0.19836780  1
  C  2615  1  0.04909500  0.32599150  0.67786150  1
  C  2616  1  0.01117050  0.32280050  0.68125050  1
  C  2618  1  0.01386100  0.28532950  0.72346750  1
  C  2619  1  0.05155700  0.28714000  0.72199900  1
  C  2620  1  0.06870200  0.30758250  0.69933850  1
  C  2622  1  0.99722000  0.26435350  0.74540950  1
  C  2623  1  0.96611230  0.22015500  0.78826600  1
  C  2624  1  0.00314800  0.22382000  0.78641000  1
  C  2627  1  0.01896250  0.24560450  0.76523350  1
  C  2631  1  0.94584780  0.24035600  0.76786800  1
  C  2633  1  0.15965230  0.81573800  0.79859300  1
  C  2634  1  0.20076650  0.81235750  0.79539950  1
  C  2636  1  0.23555780  0.77013800  0.75792700  1
  C  2637  1  0.19605430  0.77160350  0.75973550  1
  C  2638  1  0.15846130  0.79426500  0.78017600  1
  C  2640  1  0.27317550  0.74819650  0.73695750  1
  C  2641  1  0.34848500  0.70533500  0.69276700  1
  C  2642  1  0.30778700  0.70717900  0.69644000  1
  C  2645  1  0.27018630  0.72836950  0.71820750  1
  C  2649  1  0.34854550  0.72574450  0.71295750  1
  C  2651  1  0.28036880  0.20525450  0.16761150  1
  C  2652  1  0.31490100  0.20863950  0.17081150  1
  C  2654  1  0.26999030  0.25086400  0.20827700  1
  C  2655  1  0.23376480  0.24939400  0.20646400  1
  C  2656  1  0.23928380  0.22673500  0.18601600  1
  C  2658  1  0.26468650  0.27280850  0.22925050  1
  C  2659  1  0.25292550  0.31566250  0.27345750  1
  C  2660  1  0.21774950  0.31381000  0.26978300  1
  C  2663  1  0.22311580  0.29262550  0.24800650  1
  C  2667  1  0.29359000  0.29526650  0.25325750  1
  C  2669  1  0.46487230  0.32601350  0.67783750  1
  C  2670  1  0.50260100  0.32281900  0.68122400  1
  C  2672  1  0.49518130  0.28533100  0.72342900  1
  C  2673  1  0.45713830  0.28714750  0.72196650  1
  C  2674  1  0.44220630  0.30759550  0.69930750  1
  C  2676  1  0.51085550  0.26435800  0.74537100  1
  C  2677  1  0.54328950  0.22016950  0.78824250  1
  C  2678  1  0.50444850  0.22383300  0.78638100  1
  C  2681  1  0.48803380  0.24561050  0.76519750  1
  C  2685  1  0.56377200  0.24034850  0.76782350  1
  C  2687  1  0.97514601  0.69502179  0.28833079  1
  C  2688  1  0.01306921  0.69821330  0.28494329  1
  C  2690  1  0.01038400  0.73568230  0.24272130  1
  C  2691  1  0.97268700  0.73387330  0.24419130  1
  C  2692  1  0.95554051  0.71343029  0.26685230  1
  C  2694  1  0.02702470  0.75665580  0.22078080  1
  C  2695  1  0.05812970  0.80085780  0.17792480  1
  C  2696  1  0.02109520  0.79719130  0.17978130  1
  C  2699  1  0.00528150  0.77540680  0.20095580  1
  C  2703  1  0.07839620  0.78065430  0.19832330  1
  C  2849  1  0.02900250  0.15042950  0.11903850  1
  C  2850  1  0.05975900  0.12339761  0.12723739  1
  C  2852  1  0.10616350  0.15031750  0.11747250  1
  C  2853  1  0.07809200  0.17826700  0.10835900  1
  C  2854  1  0.03996550  0.17790850  0.10905850  1
  C  2856  1  0.14389250  0.15031650  0.11746650  1
  C  2857  1  0.21938600  0.15042150  0.11902250  1
  C  2858  1  0.19092500  0.17790050  0.10903950  1
  C  2861  1  0.15313300  0.17826200  0.10835100  1
  C  2865  1  0.20746150  0.12338861  0.12721839  1
  C  2867  1  0.80485650  0.87059850  0.84717250  1
  C  2868  1  0.81678100  0.89763100  0.83897700  1
  C  2870  1  0.88034650  0.87070350  0.84873250  1
  C  2871  1  0.87110800  0.84275611  0.85784789  1
  C  2872  1  0.83331800  0.84311911  0.85715389  1
  C  2874  1  0.91807600  0.87070100  0.84872800  1
  C  2875  1  0.99524450  0.87058500  0.84715300  1
  C  2876  1  0.98427450  0.84310961  0.85714239  1
  C  2879  1  0.94614850  0.84275261  0.85784039  1
  C  2883  1  0.96448200  0.89762100  0.83896100  1
  C  2885  1  0.66893120  0.64644380  0.34319179  1
  C  2886  1  0.67265500  0.65464800  0.37022300  1
  C  2888  1  0.74597671  0.64489529  0.34329630  1
  C  2889  1  0.74585620  0.63577080  0.31535280  1
  C  2890  1  0.70737520  0.63646080  0.31571280  1
  C  2892  1  0.78370070  0.64489929  0.34329630  1
  C  2893  1  0.85929771  0.64646530  0.34318229  1
  C  2894  1  0.85831670  0.63647580  0.31570580  1
  C  2897  1  0.82088820  0.63577730  0.31534930  1
  C  2901  1  0.82033700  0.65467250  0.37021350  1
  C  2903  1  0.16493870  0.37455380  0.62301179  1
  C  2904  1  0.20389470  0.36635280  0.59598280  1
  C  2906  1  0.24053121  0.37612429  0.62290029  1
  C  2907  1  0.20334550  0.38524100  0.65084700  1
  C  2908  1  0.16591750  0.38454200  0.65049000  1
  C  2910  1  0.27825671  0.37612879  0.62289879  1
  C  2911  1  0.35529920  0.37458079  0.62300380  1
  C  2912  1  0.31685650  0.38456150  0.65048350  1
  C  2915  1  0.27837400  0.38525550  0.65084350  1
  C  2919  1  0.35157470  0.36637780  0.59597380  1
  C  2921  1  0.51167100  0.36005550  0.32462850  1
  C  2922  1  0.48095800  0.35199600  0.35180100  1
  C  2924  1  0.43560200  0.35987500  0.32443500  1
  C  2925  1  0.46404250  0.36831800  0.29622400  1
  C  2926  1  0.50172250  0.36832100  0.29666500  1
  C  2928  1  0.39788350  0.35987350  0.32443950  1
  C  2929  1  0.32142950  0.36005200  0.32465300  1
  C  2930  1  0.35107000  0.36831850  0.29668450  1
  C  2933  1  0.38919800  0.36831700  0.29623300  1
  C  2937  1  0.33304200  0.35199350  0.35182150  1
  C  2939  1  0.70282000  0.66096750  0.64153650  1
  C  2940  1  0.69120550  0.66902600  0.61437000  1
  C  2942  1  0.62636350  0.66114900  0.64175100  1
  C  2943  1  0.63505100  0.65270511  0.66995689  1
  C  2944  1  0.67317850  0.65270211  0.66950589  1
  C  2946  1  0.58864350  0.66115000  0.64175800  1
  C  2947  1  0.51257850  0.66096200  0.64156300  1
  C  2948  1  0.52252350  0.65270361  0.66952739  1
  C  2951  1  0.56020300  0.65270661  0.66996839  1
  C  2955  1  0.54328900  0.66902700  0.61439100  1
  C  2957  1  0.85321800  0.16895950  0.83264650  1
  C  2958  1  0.84967120  0.14178980  0.82458380  1
  C  2960  1  0.77694950  0.16916650  0.83246250  1
  C  2961  1  0.77718650  0.19737350  0.84090750  1
  C  2962  1  0.81530700  0.19692550  0.84091450  1
  C  2964  1  0.73923500  0.16916700  0.83245800  1
  C  2965  1  0.66299150  0.16896650  0.83263050  1
  C  2966  1  0.66467000  0.19693100  0.84089700  1
  C  2969  1  0.70234850  0.19737700  0.84089700  1
  C  2973  1  0.70176820  0.14179330  0.82457330  1
  C  2975  1  0.36124771  0.85205529  0.13356029  1
  C  2976  1  0.32247000  0.87922450  0.14162150  1
  C  2978  1  0.28500570  0.85185079  0.13373480  1
  C  2979  1  0.32189420  0.82364230  0.12529230  1
  C  2980  1  0.35957170  0.82408780  0.12529380  1
  C  2982  1  0.24729271  0.85185029  0.13372930  1
  C  2983  1  0.17102321  0.85205529  0.13354530  1
  C  2984  1  0.20893520  0.82408980  0.12527780  1
  C  2987  1  0.24705520  0.82364280  0.12528480  1
  C  2991  1  0.17457100  0.87922600  0.14160600  1
  C  3137  1  0.92252530  0.17881750  0.90419050  1
  C  3138  1  0.91207430  0.15559500  0.92713700  1
  C  3140  1  0.92400530  0.17473550  0.96598050  1
  C  3141  1  0.93173150  0.20018250  0.94586150  1
  C  3142  1  0.93069930  0.20204700  0.91507200  1
  C  3144  1  0.92836300  0.17082200  0.99553200  1
  C  3145  1  0.93857100  0.16117350  0.05490050  1
  C  3146  1  0.94323850  0.18805450  0.03527150  1
  C  3149  1  0.93889100  0.19289250  0.00534650  1
  C  3153  1  0.92905600  0.14002600  0.04223900  1
  C  3155  1  0.51195900  0.84215230  0.06201730  1
  C  3156  1  0.50124600  0.86540340  0.03908220  1
  C  3158  1  0.57114200  0.84625040  0.00022320  1
  C  3159  1  0.58420420  0.82080290  0.02034170  1
  C  3160  1  0.55424850  0.81893080  0.05113080  1
  C  3162  1  0.60113220  0.85016690  0.97066870  1
  C  3163  1  0.66104050  0.85982060  0.91129440  1
  C  3164  1  0.67297750  0.83295260  0.93092940  1
  C  3167  1  0.64355100  0.82810910  0.96085690  1
  C  3171  1  0.61771620  0.88096040  0.92395820  1
  C  3173  1  0.59082430  0.43161450  0.31471750  1
  C  3174  1  0.55715430  0.45455850  0.33794950  1
  C  3176  1  0.58826100  0.49338430  0.31884630  1
  C  3177  1  0.62143350  0.47327050  0.29339650  1
  C  3178  1  0.62225780  0.44248750  0.29151850  1
  C  3180  1  0.58870870  0.52293030  0.32277130  1
  C  3181  1  0.58926070  0.58229880  0.33242880  1
  C  3182  1  0.62081620  0.56267130  0.30555230  1
  C  3185  1  0.62130870  0.53274730  0.30070630  1
  C  3189  1  0.55858970  0.56963880  0.35356680  1
  C  3191  1  0.84368530  0.58943860  0.65137840  1
  C  3192  1  0.85619680  0.56650060  0.62813940  1
  C  3194  1  0.90692380  0.52763510  0.64730690  1
  C  3195  1  0.89453950  0.54775460  0.67275240  1
  C  3196  1  0.86272530  0.57854960  0.67461440  1
  C  3198  1  0.94081800  0.49807610  0.64340090  1
  C  3199  1  0.01036150  0.43869160  0.63376940  1
  C  3200  1  0.99541500  0.45832500  0.66064200  1
  C  3203  1  0.96115150  0.48825260  0.66547840  1
  C  3207  1  0.98819000  0.45135610  0.61261990  1
  C  3209  1  0.10171270  0.84219780  0.06200380  1
  C  3210  1  0.11215170  0.86542690  0.03905870  1
  C  3212  1  0.10024070  0.84627840  0.00020920  1
  C  3213  1  0.09251320  0.82083140  0.02032920  1
  C  3214  1  0.09354220  0.81896880  0.05111880  1
  C  3216  1  0.09588520  0.85019240  0.97065720  1
  C  3217  1  0.08568230  0.85983660  0.91128840  1
  C  3218  1  0.08101230  0.83295860  0.93091840  1
  C  3221  1  0.08535730  0.82812010  0.96084290  1
  C  3225  1  0.09519650  0.88098390  0.92394970  1
  C  3227  1  0.51228200  0.17886850  0.90417550  1
  C  3228  1  0.52299550  0.15561750  0.92710950  1
  C  3230  1  0.45309950  0.17477000  0.96597000  1
  C  3231  1  0.44003750  0.20021650  0.94585150  1
  C  3232  1  0.46999300  0.20208850  0.91506150  1
  C  3234  1  0.42311000  0.17085350  0.99552250  1
  C  3235  1  0.36319980  0.16120050  0.05489950  1
  C  3236  1  0.35126430  0.18806900  0.03526400  1
  C  3239  1  0.38069030  0.19291100  0.00533800  1
  C  3243  1  0.40652730  0.14005900  0.04223400  1
  C  3245  1  0.43342450  0.58940210  0.65147990  1
  C  3246  1  0.46709600  0.56645460  0.62825040  1
  C  3248  1  0.43598300  0.52763260  0.64735340  1
  C  3249  1  0.40281150  0.54774760  0.67280140  1
  C  3250  1  0.40199050  0.57852960  0.67467740  1
  C  3252  1  0.43553550  0.49808610  0.64342790  1
  C  3253  1  0.43497780  0.43872060  0.63376740  1
  C  3254  1  0.40342180  0.45835000  0.66064600  1
  C  3257  1  0.40293130  0.48827210  0.66549190  1
  C  3261  1  0.46564980  0.45137960  0.61263240  1
  C  3263  1  0.18056850  0.43158700  0.31480700  1
  C  3264  1  0.16806900  0.45452800  0.33803900  1
  C  3266  1  0.11732220  0.49338530  0.31888130  1
  C  3267  1  0.12970900  0.47326650  0.29343450  1
  C  3268  1  0.16152500  0.44247500  0.29157000  1
  C  3270  1  0.08342070  0.52294080  0.32279280  1
  C  3271  1  0.01387100  0.58232530  0.33242730  1
  C  3272  1  0.02881900  0.56269030  0.30555430  1
  C  3275  1  0.06308600  0.53276380  0.30071680  1
  C  3279  1  0.03604450  0.56965680  0.35357680  1
  C  3425  1  0.01338300  0.91988600  0.15568300  1
  C  3426  1  0.98619350  0.93734500  0.13893700  1
  C  3428  1  0.96421700  0.98611460  0.16451440  1
  C  3429  1  0.98623150  0.97004050  0.18491350  1
  C  3430  1  0.00877050  0.93670050  0.18138750  1
  C  3432  1  0.94811700  0.01966010  0.16374090  1
  C  3433  1  0.93390100  0.08519060  0.15138140  1
  C  3434  1  0.94588600  0.06954160  0.17748740  1
  C  3437  1  0.95481000  0.03650810  0.18299390  1
  C  3441  1  0.92287300  0.06720110  0.13619090  1
  C  3443  1  0.59530370  0.10114330  0.81049530  1
  C  3444  1  0.56880920  0.08369630  0.82723630  1
  C  3446  1  0.62119920  0.03492380  0.80167080  1
  C  3447  1  0.64750570  0.05100830  0.78123830  1
  C  3448  1  0.63316720  0.08435280  0.78474580  1
  C  3450  1  0.63786870  0.00137780  0.80246980  1
  C  3451  1  0.67684650  0.93585250  0.81485350  1
  C  3452  1  0.69927750  0.95150450  0.78874250  1
  C  3455  1  0.68066500  0.98453450  0.78321450  1
  C  3459  1  0.63265350  0.95385850  0.83007850  1
  C  3461  1  0.42277500  0.68306050  0.57373850  1
  C  3462  1  0.41294350  0.66635050  0.55632050  1
  C  3464  1  0.43981000  0.69189250  0.50754050  1
  C  3465  1  0.44571000  0.71231150  0.52361750  1
  C  3466  1  0.43484000  0.70883500  0.55696700  1
  C  3468  1  0.45728400  0.69109500  0.47399600  1
  C  3469  1  0.50859050  0.67875800  0.40843600  1
  C  3470  1  0.50497150  0.70481450  0.42412750  1
  C  3473  1  0.48081200  0.71036000  0.45715000  1
  C  3477  1  0.47964700  0.66351550  0.42645850  1
  C  3479  1  0.18594000  0.33790460  0.39249640  1
  C  3480  1  0.14198550  0.35461260  0.40992640  1
  C  3482  1  0.14560900  0.32904260  0.45869140  1
  C  3483  1  0.18802050  0.30864460  0.44261740  1
  C  3484  1  0.20702500  0.31214410  0.40926990  1
  C  3486  1  0.12875520  0.32983190  0.49223670  1
  C  3487  1  0.10217020  0.34220230  0.55778330  1
  C  3488  1  0.14027470  0.31611130  0.54211730  1
  C  3491  1  0.15468920  0.31056690  0.50909270  1
  C  3495  1  0.07600070  0.35742940  0.53976320  1
  C  3497  1  0.51563400  0.34226930  0.55775330  1
  C  3498  1  0.54454950  0.35753090  0.53971770  1
  C  3500  1  0.56695200  0.32992740  0.49219220  1
  C  3501  1  0.54341600  0.31066690  0.50903670  1
  C  3502  1  0.51925250  0.31621280  0.54205980  1
  C  3504  1  0.58444080  0.32911960  0.45864740  1
  C  3505  1  0.60148380  0.33794710  0.39244790  1
  C  3506  1  0.58941330  0.31217560  0.40922040  1
  C  3509  1  0.57853730  0.30870210  0.44257190  1
  C  3513  1  0.61131880  0.35465360  0.40986640  1
  C  3515  1  0.92206930  0.67881800  0.40840700  1
  C  3516  1  0.94824030  0.66359200  0.42642700  1
  C  3518  1  0.89548530  0.69119400  0.47395200  1
  C  3519  1  0.86955030  0.71045600  0.45709700  1
  C  3520  1  0.88396580  0.70490800  0.42407300  1
  C  3522  1  0.87863130  0.69198650  0.50749850  1
  C  3523  1  0.83830230  0.68312500  0.57369500  1
  C  3524  1  0.81721730  0.70888400  0.55691900  1
  C  3527  1  0.83622080  0.71238200  0.52357100  1
  C  3531  1  0.88225780  0.66641850  0.55626350  1
  C  3533  1  0.09034780  0.93582300  0.81480800  1
  C  3534  1  0.10137280  0.95381300  0.83000000  1
  C  3536  1  0.07612800  0.00135380  0.80245080  1
  C  3537  1  0.06943630  0.98450650  0.78319650  1
  C  3538  1  0.07836230  0.95147200  0.78870200  1
  C  3540  1  0.06002500  0.03490030  0.80167930  1
  C  3541  1  0.01085600  0.10112630  0.81051330  1
  C  3542  1  0.01547100  0.08431280  0.78480680  1
  C  3545  1  0.03801100  0.05097330  0.78128030  1
  C  3549  1  0.03804500  0.08366880  0.82725880  1
  C  3551  1  0.34739330  0.08517010  0.15134190  1
  C  3552  1  0.39158980  0.06716260  0.13611440  1
  C  3554  1  0.38637080  0.01964360  0.16372440  1
  C  3555  1  0.34357380  0.03648810  0.18297990  1
  C  3556  1  0.32496330  0.06951710  0.17745190  1
  C  3558  1  0.40303880  0.98609760  0.16452140  1
  C  3559  1  0.42893480  0.91987750  0.15569650  1
  C  3560  1  0.39107080  0.93666700  0.18144600  1
  C  3563  1  0.37673180  0.97001400  0.18495400  1
  C  3567  1  0.45543030  0.93732400  0.13895700  1
  H  5  1  0.93722000  0.66464950  0.18431550  1
  H  6  1  0.93799400  0.69118750  0.15180150  1
  H  9  1  0.97691600  0.66747950  0.09325450  1
  H  10  1  0.99873300  0.62588000  0.08791400  1
  H  11  1  0.89520100  0.69717450  0.11889750  1
  H  12  1  0.86260350  0.67560450  0.12754350  1
  H  15  1  0.94845400  0.59469850  0.10545450  1
  H  16  1  0.89277100  0.61642750  0.12307950  1
  H  18  1  0.99415450  0.58829600  0.13641900  1
  H  19  1  0.97093700  0.60460800  0.17515100  1
  H  21  1  0.85870100  0.63505250  0.17975550  1
  H  22  1  0.88957300  0.63278350  0.20112150  1
  H  27  1  0.78543650  0.33686750  0.81569150  1
  H  28  1  0.78024600  0.31031500  0.84819200  1
  H  31  1  0.73691250  0.33399700  0.90674900  1
  H  32  1  0.71177650  0.37559450  0.91210850  1
  H  33  1  0.71054700  0.30431000  0.88108800  1
  H  34  1  0.66501950  0.32588200  0.87244600  1
  H  37  1  0.64785200  0.40677750  0.89457750  1
  H  38  1  0.63153250  0.38505750  0.87693250  1
  H  40  1  0.71810800  0.41319950  0.86362050  1
  H  41  1  0.74993050  0.39690700  0.82488000  1
  H  43  1  0.67276150  0.36645700  0.82025400  1
  H  44  1  0.72272300  0.36873850  0.79889450  1
  H  49  1  0.60112700  0.18505100  0.33612100  1
  H  50  1  0.62844400  0.15254250  0.30957550  1
  H  53  1  0.64367000  0.09399150  0.33327050  1
  H  54  1  0.62389150  0.08864100  0.37486800  1
  H  55  1  0.59164550  0.11963900  0.30357800  1
  H  56  1  0.53747800  0.12827850  0.32514950  1
  H  59  1  0.54243900  0.10616800  0.40604900  1
  H  60  1  0.50847500  0.12380000  0.38432700  1
  H  62  1  0.58172350  0.13714050  0.41246450  1
  H  63  1  0.57480400  0.17587650  0.39616050  1
  H  65  1  0.49301950  0.18047650  0.36571350  1
  H  66  1  0.52161350  0.20184500  0.36799100  1
  H  71  1  0.12153200  0.81641600  0.66390300  1
  H  72  1  0.08979350  0.84892850  0.69044150  1
  H  75  1  0.07016550  0.90747550  0.66673350  1
  H  76  1  0.08663650  0.91281700  0.62513600  1
  H  77  1  0.01409500  0.88182950  0.69643350  1
  H  78  1  0.99014100  0.87318300  0.67486600  1
  H  81  1  0.05389600  0.89527700  0.59395900  1
  H  82  1  0.01583750  0.87765000  0.61568800  1
  H  84  1  0.13056500  0.86431100  0.58754900  1
  H  85  1  0.14608000  0.82557850  0.60386150  1
  H  87  1  0.03844750  0.82097600  0.63431300  1
  H  88  1  0.09068550  0.79961050  0.63204050  1
  H  93  1  0.58071100  0.80343350  0.32105150  1
  H  94  1  0.57928950  0.83442750  0.29258150  1
  H  97  1  0.53803850  0.89388550  0.31191550  1
  H  98  1  0.51176600  0.90137950  0.35310550  1
  H  99  1  0.61885450  0.87095400  0.28550400  1
  H  100  1  0.64929200  0.86497150  0.30843450  1
  H  103  1  0.56054500  0.88984500  0.38764000  1
  H  104  1  0.61584700  0.87522100  0.36668800  1
  H  106  1  0.51818450  0.85606050  0.39415950  1
  H  107  1  0.54413350  0.81633300  0.38004400  1
  H  109  1  0.65446700  0.81628300  0.35048800  1
  H  110  1  0.62628050  0.79226400  0.35401800  1
  H  115  1  0.70450600  0.19806250  0.67892350  1
  H  116  1  0.70563900  0.16706150  0.70738250  1
  H  119  1  0.74320200  0.10760800  0.68803200  1
  H  120  1  0.76559600  0.10012600  0.64684200  1
  H  121  1  0.77467050  0.13054800  0.71443900  1
  H  122  1  0.82204150  0.13654750  0.69150350  1
  H  125  1  0.83735150  0.11169350  0.61229550  1
  H  126  1  0.85707550  0.12632200  0.63324700  1
  H  128  1  0.76771000  0.14546000  0.60580000  1
  H  129  1  0.73979900  0.18518400  0.61992900  1
  H  131  1  0.82053800  0.18525300  0.64946300  1
  H  132  1  0.77185000  0.20926200  0.64594800  1
  H  137  1  0.90176900  0.67967550  0.80269650  1
  H  138  1  0.87189250  0.70813950  0.83369550  1
  H  141  1  0.84999150  0.68879350  0.89314950  1
  H  142  1  0.86490350  0.64760400  0.90063600  1
  H  143  1  0.90440100  0.71520100  0.87021300  1
  H  144  1  0.95777100  0.69226500  0.86422000  1
  H  147  1  0.94821750  0.61306100  0.88908400  1
  H  148  1  0.98257500  0.63400600  0.87445600  1
  H  150  1  0.91235750  0.60655750  0.85530550  1
  H  151  1  0.92418200  0.62068350  0.81558050  1
  H  153  1  0.00497950  0.65021900  0.81552400  1
  H  154  1  0.98031300  0.64669650  0.79150950  1
  H  159  1  0.38342000  0.32181000  0.19732700  1
  H  160  1  0.41299950  0.29334250  0.16633250  1
  H  163  1  0.43121350  0.31268050  0.10687550  1
  H  164  1  0.41243050  0.35386800  0.09938300  1
  H  165  1  0.48909250  0.28626900  0.12981200  1
  H  166  1  0.51353900  0.30920100  0.13580300  1
  H  169  1  0.44966250  0.38840700  0.11092600  1
  H  170  1  0.49033850  0.36745700  0.12555400  1
  H  172  1  0.37351850  0.39492100  0.14470600  1
  H  173  1  0.35973850  0.38080250  0.18443150  1
  H  175  1  0.47001600  0.35125300  0.18448900  1
  H  176  1  0.41781000  0.35478100  0.20850600  1
  H  181  1  0.06278100  0.33683200  0.81568300  1
  H  182  1  0.06200950  0.31029400  0.84819600  1
  H  185  1  0.02308950  0.33400200  0.90674300  1
  H  186  1  0.00127300  0.37560000  0.91208600  1
  H  187  1  0.10480200  0.30430600  0.88109900  1
  H  188  1  0.13740300  0.32587500  0.87245300  1
  H  191  1  0.05155200  0.40678150  0.89454250  1
  H  192  1  0.10723650  0.38505150  0.87691550  1
  H  194  1  0.00585050  0.41318550  0.86357950  1
  H  195  1  0.02906400  0.39687550  0.82484850  1
  H  197  1  0.14130050  0.36642950  0.82024150  1
  H  198  1  0.11042800  0.36869750  0.79887750  1
  H  203  1  0.21456050  0.66462300  0.18431100  1
  H  204  1  0.21975250  0.69117450  0.15180750  1
  H  207  1  0.26308650  0.66749000  0.09325300  1
  H  208  1  0.28822200  0.62589350  0.08789450  1
  H  209  1  0.28945100  0.69717850  0.11891250  1
  H  210  1  0.33497850  0.67560850  0.12755350  1
  H  213  1  0.35214500  0.59471050  0.10542550  1
  H  214  1  0.36846700  0.61643150  0.12306850  1
  H  216  1  0.28189000  0.58828950  0.13638350  1
  H  217  1  0.25006650  0.60458300  0.17512300  1
  H  219  1  0.32723800  0.63503250  0.17974750  1
  H  220  1  0.27727600  0.63275200  0.20110800  1
  H  225  1  0.39886250  0.81643850  0.66388050  1
  H  226  1  0.37154700  0.84894650  0.69042750  1
  H  229  1  0.35632050  0.90749750  0.66673750  1
  H  230  1  0.37609500  0.91285100  0.62514000  1
  H  231  1  0.40835000  0.88184700  0.69642400  1
  H  232  1  0.46251650  0.87320800  0.67485100  1
  H  235  1  0.45754700  0.89532500  0.59395500  1
  H  236  1  0.49151450  0.87768900  0.61567400  1
  H  238  1  0.41825850  0.86435600  0.58754000  1
  H  239  1  0.42518150  0.82561750  0.60383950  1
  H  241  1  0.50697100  0.82101200  0.63428300  1
  H  242  1  0.47837550  0.79964400  0.63200700  1
  H  247  1  0.87846350  0.18506950  0.33609650  1
  H  248  1  0.91020100  0.15255400  0.30956100  1
  H  251  1  0.92982550  0.09400850  0.33327050  1
  H  252  1  0.91335250  0.08866850  0.37486950  1
  H  253  1  0.98589750  0.11965100  0.30356900  1
  H  254  1  0.00985400  0.12829650  0.32513550  1
  H  257  1  0.94609500  0.10620900  0.40604600  1
  H  258  1  0.98415450  0.12383400  0.38431500  1
  H  260  1  0.86942550  0.13717800  0.41245400  1
  H  261  1  0.85391450  0.17590850  0.39613850  1
  H  263  1  0.96155050  0.18050750  0.36568550  1
  H  264  1  0.90931100  0.20187550  0.36795750  1
  H  269  1  0.41929450  0.19805300  0.67894200  1
  H  270  1  0.42071600  0.16706100  0.70741400  1
  H  273  1  0.46196500  0.10760250  0.68808750  1
  H  274  1  0.48824100  0.10010200  0.64689800  1
  H  275  1  0.38115000  0.13053300  0.71449500  1
  H  276  1  0.35071400  0.13651500  0.69156400  1
  H  279  1  0.43946550  0.11163250  0.61236150  1
  H  280  1  0.38416300  0.12625900  0.63331200  1
  H  282  1  0.48182700  0.14541800  0.60584000  1
  H  283  1  0.45587550  0.18514800  0.61995100  1
  H  285  1  0.34554300  0.18519750  0.64950550  1
  H  286  1  0.37373050  0.20921750  0.64597250  1
  H  291  1  0.29549400  0.80342800  0.32107600  1
  H  292  1  0.29436750  0.83442750  0.29261350  1
  H  295  1  0.25680600  0.89388050  0.31196350  1
  H  296  1  0.23441050  0.90136650  0.35315250  1
  H  297  1  0.22533550  0.87094300  0.28555800  1
  H  298  1  0.17796300  0.86494450  0.30849350  1
  H  301  1  0.16265050  0.88980300  0.38769900  1
  H  302  1  0.14292800  0.87517300  0.36674800  1
  H  304  1  0.23229250  0.85603400  0.39419600  1
  H  305  1  0.26020100  0.81631050  0.38006950  1
  H  307  1  0.17946250  0.81624200  0.35053500  1
  H  308  1  0.22814900  0.79223100  0.35405200  1
  H  313  1  0.09823050  0.32180400  0.19730400  1
  H  314  1  0.12810600  0.29334350  0.16630450  1
  H  317  1  0.15000600  0.31269050  0.10685050  1
  H  318  1  0.13509100  0.35388050  0.09936350  1
  H  319  1  0.09559850  0.28628200  0.12978600  1
  H  320  1  0.04222700  0.30921700  0.13578000  1
  H  323  1  0.05177850  0.38842250  0.11091950  1
  H  324  1  0.01742150  0.36747450  0.12554650  1
  H  326  1  0.08763700  0.39492450  0.14469750  1
  H  327  1  0.07581550  0.38079750  0.18442150  1
  H  329  1  0.99501750  0.35126250  0.18447850  1
  H  330  1  0.01968750  0.35478250  0.20849250  1
  H  335  1  0.61657450  0.67967900  0.80267200  1
  H  336  1  0.58699700  0.70814700  0.83366700  1
  H  339  1  0.56878250  0.68880950  0.89312450  1
  H  340  1  0.58756550  0.64762050  0.90061650  1
  H  341  1  0.51090300  0.71522050  0.87018850  1
  H  342  1  0.48645550  0.69228850  0.86419950  1
  H  345  1  0.55033200  0.61308250  0.88907450  1
  H  346  1  0.50965550  0.63403250  0.87444650  1
  H  348  1  0.62647600  0.60656800  0.85529300  1
  H  349  1  0.64025750  0.62068550  0.81556650  1
  H  351  1  0.52997700  0.65023650  0.81551050  1
  H  352  1  0.58218350  0.64670850  0.79149450  1
  H  711  1  0.88180200  0.71602350  0.20226550  1
  H  715  1  0.80721400  0.68438450  0.17571150  1
  H  720  1  0.70720900  0.81770950  0.30047550  1
  H  722  1  0.63623800  0.78487050  0.27088450  1
  H  729  1  0.79936500  0.28550300  0.79771100  1
  H  733  1  0.66658400  0.31711600  0.82427200  1
  H  738  1  0.82470700  0.18382100  0.69947800  1
  H  740  1  0.69130500  0.21661950  0.72908950  1
  H  747  1  0.59708400  0.20301150  0.28475250  1
  H  751  1  0.49086100  0.17645500  0.31637900  1
  H  756  1  0.52418800  0.30123300  0.18306500  1
  H  758  1  0.42038450  0.27163900  0.21588400  1
  H  765  1  0.08407400  0.79846300  0.71527600  1
  H  769  1  0.98291950  0.82501700  0.68365100  1
  H  774  1  0.00771300  0.70023700  0.81695800  1
  H  776  1  0.90712900  0.72984250  0.78414150  1
  H  783  1  0.11820100  0.28545750  0.79772950  1
  H  787  1  0.19278800  0.31709950  0.82428350  1
  H  792  1  0.29279600  0.18377650  0.69951750  1
  H  794  1  0.36376600  0.21661750  0.72911050  1
  H  801  1  0.20063350  0.71598700  0.20229000  1
  H  805  1  0.33341300  0.68437500  0.17572900  1
  H  810  1  0.17529450  0.81767200  0.30051900  1
  H  812  1  0.30869550  0.78486950  0.27091050  1
  H  819  1  0.40290800  0.79847650  0.71524850  1
  H  823  1  0.50913500  0.82502900  0.68361800  1
  H  828  1  0.47580300  0.70025750  0.81693750  1
  H  830  1  0.57961200  0.72985000  0.78411300  1
  H  837  1  0.91592350  0.20301850  0.28472350  1
  H  841  1  0.01708050  0.17646000  0.31634700  1
  H  846  1  0.99228550  0.30124400  0.18304100  1
  H  848  1  0.09287250  0.27163550  0.21585650  1
  H  999  1  0.00770200  0.68848600  0.11940500  1
  H  1003  1  0.04383000  0.59249050  0.15127450  1
  H  1008  1  0.18514900  0.68848300  0.11940100  1
  H  1010  1  0.21315150  0.59248200  0.15126000  1
  H  1017  1  0.81485050  0.31300400  0.88059900  1
  H  1021  1  0.78684450  0.40900700  0.84874900  1
  H  1026  1  0.99230300  0.31299350  0.88058750  1
  H  1028  1  0.95617250  0.40899350  0.84872550  1
  H  1035  1  0.69545500  0.12013800  0.31227400  1
  H  1039  1  0.63558200  0.15202450  0.40826550  1
  H  1044  1  0.87289150  0.12015250  0.31226750  1
  H  1046  1  0.80489100  0.15204100  0.40825700  1
  H  1053  1  0.12709850  0.88133100  0.68773800  1
  H  1057  1  0.19510000  0.84945150  0.59174450  1
  H  1062  1  0.30453350  0.88135050  0.68773250  1
  H  1064  1  0.36440150  0.84947450  0.59173750  1
  H  1071  1  0.50980800  0.86488350  0.29309450  1
  H  1075  1  0.47216400  0.83616300  0.39011000  1
  H  1080  1  0.33287150  0.86488650  0.29312050  1
  H  1082  1  0.30225800  0.83616500  0.39013300  1
  H  1089  1  0.66713400  0.13660100  0.70687800  1
  H  1093  1  0.69774300  0.16532950  0.60986550  1
  H  1098  1  0.49019700  0.13660250  0.70690350  1
  H  1100  1  0.52784200  0.16532300  0.60988900  1
  H  1107  1  0.80292500  0.70763100  0.86415100  1
  H  1111  1  0.86227450  0.61061600  0.83542700  1
  H  1116  1  0.62600800  0.70763800  0.86412900  1
  H  1118  1  0.69239000  0.61062450  0.83540550  1
  H  1125  1  0.37398950  0.29385100  0.13586900  1
  H  1129  1  0.30760500  0.39086250  0.16459550  1
  H  1134  1  0.19707450  0.29385350  0.13584950  1
  H  1136  1  0.13772200  0.39086600  0.16457500  1
  H  1287  1  0.92600200  0.70995250  0.91714550  1
  H  1291  1  0.89371100  0.62813100  0.93863300  1
  H  1296  1  0.93792450  0.69460500  0.05952900  1
  H  1298  1  0.91292000  0.61016900  0.07058200  1
  H  1305  1  0.55242150  0.29154050  0.08288650  1
  H  1309  1  0.45976200  0.37331700  0.06138500  1
  H  1314  1  0.69134200  0.30687700  0.94048200  1
  H  1316  1  0.59291750  0.39128200  0.92942200  1
  H  1323  1  0.63524200  0.91788200  0.29076500  1
  H  1327  1  0.52111400  0.93937650  0.37256750  1
  H  1332  1  0.63181900  0.06026050  0.30614350  1
  H  1334  1  0.52236900  0.07130350  0.39056750  1
  H  1341  1  0.84319950  0.08361850  0.70918550  1
  H  1345  1  0.83238400  0.06214550  0.62736950  1
  H  1350  1  0.99745450  0.94120200  0.69386400  1
  H  1352  1  0.98349000  0.93015100  0.60943400  1
  H  1359  1  0.07399700  0.29153200  0.08285500  1
  H  1363  1  0.10629000  0.37335200  0.06136500  1
  H  1368  1  0.06208000  0.30687600  0.94046900  1
  H  1370  1  0.08708900  0.39130950  0.92941450  1
  H  1377  1  0.44757400  0.70994950  0.91711350  1
  H  1381  1  0.54023450  0.62817200  0.93861400  1
  H  1386  1  0.30865650  0.69461050  0.05952050  1
  H  1388  1  0.40708100  0.61020550  0.07057850  1
  H  1395  1  0.36476000  0.08360500  0.70923700  1
  H  1399  1  0.47889350  0.06210450  0.62743950  1
  H  1404  1  0.36817250  0.94122950  0.69386150  1
  H  1406  1  0.47762650  0.93018300  0.60943800  1
  H  1413  1  0.15680450  0.91787200  0.29081000  1
  H  1417  1  0.16761600  0.93934550  0.37262850  1
  H  1422  1  0.00253800  0.06028250  0.30613950  1
  H  1424  1  0.01649750  0.07133100  0.39057300  1
  H  1575  1  0.01368750  0.41596100  0.21239400  1
  H  1579  1  0.97287150  0.41770250  0.13811050  1
  H  1584  1  0.94107550  0.57122750  0.20719050  1
  H  1586  1  0.89997050  0.56634100  0.13509200  1
  H  1593  1  0.64124950  0.58554300  0.78759200  1
  H  1597  1  0.52792750  0.58378400  0.86192300  1
  H  1602  1  0.71871550  0.43028350  0.79283950  1
  H  1604  1  0.60065050  0.43515500  0.86494800  1
  H  1611  1  0.42886550  0.21312800  0.58482600  1
  H  1615  1  0.38993700  0.13875200  0.58305300  1
  H  1620  1  0.51153150  0.20790850  0.42955550  1
  H  1622  1  0.46559250  0.13579750  0.43442050  1
  H  1629  1  0.22606900  0.78833100  0.41521800  1
  H  1633  1  0.11095300  0.86262350  0.41697750  1
  H  1638  1  0.14826050  0.79354350  0.57047450  1
  H  1640  1  0.03505300  0.86562000  0.56560500  1
  H  1647  1  0.48845250  0.79358600  0.57044200  1
  H  1651  1  0.53441250  0.86567800  0.56558600  1
  H  1656  1  0.57113900  0.78835400  0.41517100  1
  H  1658  1  0.61009000  0.86271650  0.41694050  1
  H  1665  1  0.85173300  0.20794300  0.42952400  1
  H  1669  1  0.96494200  0.13587150  0.43439450  1
  H  1674  1  0.77392800  0.21316200  0.58477900  1
  H  1676  1  0.88904900  0.13887600  0.58302200  1
  H  1683  1  0.05892700  0.43025450  0.79280850  1
  H  1687  1  0.10003400  0.43513950  0.86490550  1
  H  1692  1  0.98630850  0.58552250  0.78760950  1
  H  1694  1  0.02712300  0.58377800  0.86189400  1
  H  1701  1  0.28128200  0.57120550  0.20716350  1
  H  1705  1  0.39934700  0.56633400  0.13505600  1
  H  1710  1  0.35874400  0.41594750  0.21240750  1
  H  1712  1  0.47206900  0.41770400  0.13807700  1
  H  1861  1  0.94934200  0.17441550  0.16741150  1
  H  1862  1  0.95011600  0.20095350  0.13489750  1
  H  1865  1  0.98903800  0.17724550  0.07635050  1
  H  1866  1  0.01085500  0.13564600  0.07101000  1
  H  1867  1  0.90732300  0.20694050  0.10199350  1
  H  1868  1  0.87472550  0.18537050  0.11063950  1
  H  1871  1  0.96057600  0.10446450  0.08855050  1
  H  1872  1  0.90489300  0.12619350  0.10617550  1
  H  1874  1  0.00627650  0.09806210  0.11951490  1
  H  1875  1  0.98305900  0.11437410  0.15824690  1
  H  1877  1  0.87082300  0.14481861  0.16285139  1
  H  1878  1  0.90169500  0.14254960  0.18421740  1
  H  1883  1  0.79755850  0.84663350  0.79878750  1
  H  1884  1  0.79236800  0.82008111  0.83128789  1
  H  1887  1  0.74903450  0.84376310  0.88984490  1
  H  1888  1  0.72389850  0.88536061  0.89520439  1
  H  1889  1  0.72266900  0.81407610  0.86418390  1
  H  1890  1  0.67714150  0.83564811  0.85554189  1
  H  1893  1  0.65997400  0.91654350  0.87767350  1
  H  1894  1  0.64365450  0.89482350  0.86002850  1
  H  1896  1  0.73023000  0.92296550  0.84671650  1
  H  1897  1  0.76205250  0.90667300  0.80797600  1
  H  1899  1  0.68488350  0.87622300  0.80335000  1
  H  1900  1  0.73484500  0.87850450  0.78199050  1
  H  1905  1  0.61324900  0.69481700  0.31921700  1
  H  1906  1  0.64056620  0.66230830  0.29267130  1
  H  1909  1  0.65579220  0.60375730  0.31636630  1
  H  1910  1  0.63601370  0.59840680  0.35796380  1
  H  1911  1  0.60376770  0.62940480  0.28667380  1
  H  1912  1  0.54960020  0.63804430  0.30824530  1
  H  1915  1  0.55456100  0.61593400  0.38914500  1
  H  1916  1  0.52059700  0.63356600  0.36742300  1
  H  1918  1  0.59384550  0.64690650  0.39556050  1
  H  1919  1  0.58692600  0.68564250  0.37925650  1
  H  1921  1  0.50514150  0.69024250  0.34880950  1
  H  1922  1  0.53373550  0.71161100  0.35108700  1
  H  1927  1  0.13365420  0.32618180  0.64699880  1
  H  1928  1  0.10191550  0.35869450  0.67353750  1
  H  1931  1  0.08228750  0.41724150  0.64982950  1
  H  1932  1  0.09875850  0.42258310  0.60823190  1
  H  1933  1  0.02621700  0.39159550  0.67952950  1
  H  1934  1  0.00226300  0.38294900  0.65796200  1
  H  1937  1  0.06601820  0.40504290  0.57705469  1
  H  1938  1  0.02795970  0.38741580  0.59878379  1
  H  1940  1  0.14268720  0.37407690  0.57064470  1
  H  1941  1  0.15820220  0.33534430  0.58695730  1
  H  1943  1  0.05056970  0.33074180  0.61740880  1
  H  1944  1  0.10280770  0.30937630  0.61513630  1
  H  1949  1  0.59283280  0.31319950  0.30414750  1
  H  1950  1  0.59141130  0.34419350  0.27567750  1
  H  1953  1  0.55016050  0.40365150  0.29501150  1
  H  1954  1  0.52388800  0.41114550  0.33620150  1
  H  1955  1  0.63097630  0.38072000  0.26860000  1
  H  1956  1  0.66141380  0.37473750  0.29153050  1
  H  1959  1  0.57266680  0.39961100  0.37073600  1
  H  1960  1  0.62796880  0.38498700  0.34978400  1
  H  1962  1  0.53030630  0.36582661  0.37725539  1
  H  1963  1  0.55625530  0.32609910  0.36313990  1
  H  1965  1  0.66658880  0.32604911  0.33358389  1
  H  1966  1  0.63840230  0.30203010  0.33711390  1
  H  1971  1  0.71662780  0.70782850  0.66201950  1
  H  1972  1  0.71776080  0.67682761  0.69047839  1
  H  1975  1  0.75532400  0.61737410  0.67112790  1
  H  1976  1  0.77771800  0.60989210  0.62993790  1
  H  1977  1  0.78679230  0.64031410  0.69753490  1
  H  1978  1  0.83416330  0.64631360  0.67459940  1
  H  1981  1  0.84947330  0.62145950  0.59539150  1
  H  1982  1  0.86919730  0.63608800  0.61634300  1
  H  1984  1  0.77983180  0.65522600  0.58889600  1
  H  1985  1  0.75192080  0.69495000  0.60302500  1
  H  1987  1  0.83265980  0.69501900  0.63255900  1
  H  1988  1  0.78397180  0.71902800  0.62904400  1
  H  1993  1  0.91389100  0.18944130  0.78579230  1
  H  1994  1  0.88401430  0.21790550  0.81679150  1
  H  1997  1  0.86211350  0.19855950  0.87624550  1
  H  1998  1  0.87702550  0.15737000  0.88373200  1
  H  1999  1  0.91652280  0.22496700  0.85330900  1
  H  2000  1  0.96989280  0.20203100  0.84731600  1
  H  2003  1  0.96033950  0.12282680  0.87217980  1
  H  2004  1  0.99469680  0.14377200  0.85755200  1
  H  2006  1  0.92447950  0.11632330  0.83840130  1
  H  2007  1  0.93630400  0.13044930  0.79867630  1
  H  2009  1  0.01710150  0.15998480  0.79861980  1
  H  2010  1  0.99243500  0.15646230  0.77460530  1
  H  2015  1  0.39554180  0.83157600  0.18042300  1
  H  2016  1  0.42512150  0.80310830  0.14942830  1
  H  2019  1  0.44333570  0.82244630  0.08997130  1
  H  2020  1  0.42455270  0.86363380  0.08247880  1
  H  2021  1  0.50121450  0.79603480  0.11290780  1
  H  2022  1  0.52566100  0.81896680  0.11889880  1
  H  2025  1  0.46178450  0.89817289  0.09402170  1
  H  2026  1  0.50246050  0.87722279  0.10864980  1
  H  2028  1  0.38564030  0.90468700  0.12780200  1
  H  2029  1  0.37186030  0.89056850  0.16752750  1
  H  2031  1  0.48213780  0.86101900  0.16758500  1
  H  2032  1  0.42993180  0.86454700  0.19160200  1
  H  2037  1  0.07490300  0.84659800  0.79877900  1
  H  2038  1  0.07413150  0.82006011  0.83129189  1
  H  2041  1  0.03521130  0.84376810  0.88983890  1
  H  2042  1  0.01339480  0.88536611  0.89518189  1
  H  2043  1  0.11692380  0.81407210  0.86419490  1
  H  2044  1  0.14952480  0.83564111  0.85554889  1
  H  2047  1  0.06367380  0.91654750  0.87763850  1
  H  2048  1  0.11935830  0.89481750  0.86001150  1
  H  2050  1  0.01797230  0.92295150  0.84667550  1
  H  2051  1  0.04118600  0.90664150  0.80794450  1
  H  2053  1  0.15342230  0.87619550  0.80333750  1
  H  2054  1  0.12254980  0.87846350  0.78197350  1
  H  2059  1  0.22668250  0.17438900  0.16740700  1
  H  2060  1  0.23187450  0.20094050  0.13490350  1
  H  2063  1  0.27520830  0.17725600  0.07634900  1
  H  2064  1  0.30034380  0.13565950  0.07099050  1
  H  2065  1  0.30157280  0.20694450  0.10200850  1
  H  2066  1  0.34710030  0.18537450  0.11064950  1
  H  2069  1  0.36426680  0.10447650  0.08852150  1
  H  2070  1  0.38058880  0.12619750  0.10616450  1
  H  2072  1  0.29401180  0.09805560  0.11947940  1
  H  2073  1  0.26218850  0.11434910  0.15821890  1
  H  2075  1  0.33935980  0.14479861  0.16284339  1
  H  2076  1  0.28939780  0.14251810  0.18420390  1
  H  2081  1  0.41098470  0.32620430  0.64697630  1
  H  2082  1  0.38366900  0.35871250  0.67352350  1
  H  2085  1  0.36844230  0.41726350  0.64983350  1
  H  2086  1  0.38821680  0.42261710  0.60823590  1
  H  2087  1  0.42047180  0.39161300  0.67952000  1
  H  2088  1  0.47463830  0.38297400  0.65794700  1
  H  2091  1  0.46966900  0.40509090  0.57705069  1
  H  2092  1  0.50363650  0.38745480  0.59876979  1
  H  2094  1  0.43038050  0.37412190  0.57063570  1
  H  2095  1  0.43730370  0.33538330  0.58693530  1
  H  2097  1  0.51909300  0.33077780  0.61737880  1
  H  2098  1  0.49049750  0.30940980  0.61510280  1
  H  2103  1  0.89058550  0.69483550  0.31919250  1
  H  2104  1  0.92232320  0.66231980  0.29265680  1
  H  2107  1  0.94194750  0.60377430  0.31636630  1
  H  2108  1  0.92547450  0.59843430  0.35796530  1
  H  2109  1  0.99801950  0.62941680  0.28666480  1
  H  2110  1  0.02197600  0.63806230  0.30823130  1
  H  2113  1  0.95821680  0.61597500  0.38914200  1
  H  2114  1  0.99627630  0.63360000  0.36741100  1
  H  2116  1  0.88154730  0.64694400  0.39555000  1
  H  2117  1  0.86603650  0.68567450  0.37923450  1
  H  2119  1  0.97367230  0.69027350  0.34878150  1
  H  2120  1  0.92143280  0.71164150  0.35105350  1
  H  2125  1  0.43141650  0.70781900  0.66203800  1
  H  2126  1  0.43283800  0.67682711  0.69050989  1
  H  2129  1  0.47408700  0.61736860  0.67118340  1
  H  2130  1  0.50036300  0.60986810  0.62999390  1
  H  2131  1  0.39327200  0.64029910  0.69759090  1
  H  2132  1  0.36283600  0.64628110  0.67465990  1
  H  2135  1  0.45158750  0.62139850  0.59545750  1
  H  2136  1  0.39628500  0.63602500  0.61640800  1
  H  2138  1  0.49394900  0.65518400  0.58893600  1
  H  2139  1  0.46799750  0.69491400  0.60304700  1
  H  2141  1  0.35766500  0.69496350  0.63260150  1
  H  2142  1  0.38585250  0.71898350  0.62906850  1
  H  2147  1  0.30761600  0.31319400  0.30417200  1
  H  2148  1  0.30648950  0.34419350  0.27570950  1
  H  2151  1  0.26892800  0.40364650  0.29505950  1
  H  2152  1  0.24653250  0.41113250  0.33624850  1
  H  2153  1  0.23745750  0.38070900  0.26865400  1
  H  2154  1  0.19008500  0.37471050  0.29158950  1
  H  2157  1  0.17477250  0.39956900  0.37079500  1
  H  2158  1  0.15505000  0.38493900  0.34984400  1
  H  2160  1  0.24441450  0.36580011  0.37729189  1
  H  2161  1  0.27232300  0.32607660  0.36316540  1
  H  2163  1  0.19158450  0.32600811  0.33363089  1
  H  2164  1  0.24027100  0.30199710  0.33714790  1
  H  2169  1  0.11035250  0.83157000  0.18040000  1
  H  2170  1  0.14022820  0.80310930  0.14940030  1
  H  2173  1  0.16212820  0.82245630  0.08994630  1
  H  2174  1  0.14721320  0.86364630  0.08245930  1
  H  2175  1  0.10772070  0.79604780  0.11288180  1
  H  2176  1  0.05434920  0.81898280  0.11887580  1
  H  2179  1  0.06390071  0.89818840  0.09401519  1
  H  2180  1  0.02954371  0.87724030  0.10864229  1
  H  2182  1  0.09975900  0.90469050  0.12779350  1
  H  2183  1  0.08793750  0.89056350  0.16751750  1
  H  2185  1  0.00713950  0.86102850  0.16757450  1
  H  2186  1  0.03180950  0.86454850  0.19158850  1
  H  2191  1  0.62869670  0.18944480  0.78576780  1
  H  2192  1  0.59911900  0.21791300  0.81676300  1
  H  2195  1  0.58090450  0.19857550  0.87622050  1
  H  2196  1  0.59968750  0.15738650  0.88371250  1
  H  2197  1  0.52302500  0.22498650  0.85328450  1
  H  2198  1  0.49857750  0.20205450  0.84729550  1
  H  2201  1  0.56245421  0.12284830  0.87217029  1
  H  2202  1  0.52177750  0.14379850  0.85754250  1
  H  2204  1  0.63859820  0.11633380  0.83838880  1
  H  2205  1  0.65237970  0.13045130  0.79866230  1
  H  2207  1  0.54209920  0.16000230  0.79860630  1
  H  2208  1  0.59430570  0.15647430  0.77459030  1
  H  2567  1  0.89392400  0.22578950  0.18536150  1
  H  2571  1  0.81933580  0.19415050  0.15880750  1
  H  2576  1  0.71933100  0.32747550  0.28357150  1
  H  2578  1  0.64835980  0.29463650  0.25398050  1
  H  2585  1  0.81148700  0.79526900  0.78080700  1
  H  2589  1  0.67870580  0.82688200  0.80736800  1
  H  2594  1  0.83682900  0.69358700  0.68257400  1
  H  2596  1  0.70342680  0.72638550  0.71218550  1
  H  2603  1  0.60920621  0.71277730  0.26784829  1
  H  2607  1  0.50298300  0.68622079  0.29947480  1
  H  2612  1  0.53631020  0.81099880  0.16616080  1
  H  2614  1  0.43250650  0.78140480  0.19897979  1
  H  2621  1  0.09619600  0.30822900  0.69837200  1
  H  2625  1  0.99504130  0.33478300  0.66674700  1
  H  2630  1  0.01983500  0.21000300  0.80005400  1
  H  2632  1  0.91925080  0.23960850  0.76723750  1
  H  2639  1  0.13032280  0.79522350  0.78082550  1
  H  2643  1  0.20491000  0.82686550  0.80737950  1
  H  2648  1  0.30491780  0.69354250  0.68261350  1
  H  2650  1  0.37588800  0.72638350  0.71220650  1
  H  2657  1  0.21275530  0.22575300  0.18538600  1
  H  2661  1  0.34553500  0.19414100  0.15882500  1
  H  2666  1  0.18741630  0.32743800  0.28361500  1
  H  2668  1  0.32081750  0.29463550  0.25400650  1
  H  2675  1  0.41502980  0.30824250  0.69834450  1
  H  2679  1  0.52125700  0.33479500  0.66671400  1
  H  2684  1  0.48792480  0.21002350  0.80003350  1
  H  2686  1  0.59173400  0.23961600  0.76720900  1
  H  2693  1  0.92804551  0.71278429  0.26781930  1
  H  2697  1  0.02920270  0.68622580  0.29944279  1
  H  2702  1  0.00440750  0.81100980  0.16613680  1
  H  2704  1  0.10499470  0.78140129  0.19895230  1
  H  2855  1  0.01982400  0.19825200  0.10250100  1
  H  2859  1  0.05595200  0.10225660  0.13437040  1
  H  2864  1  0.19727100  0.19824900  0.10249700  1
  H  2866  1  0.22527350  0.10224810  0.13435590  1
  H  2873  1  0.82697250  0.82277010  0.86369490  1
  H  2877  1  0.79896650  0.91877300  0.83184500  1
  H  2882  1  0.00442500  0.82275960  0.86368340  1
  H  2884  1  0.96829450  0.91875950  0.83182150  1
  H  2891  1  0.70757720  0.62990380  0.29536980  1
  H  2895  1  0.64770400  0.66179050  0.39136150  1
  H  2900  1  0.88501370  0.62991830  0.29536330  1
  H  2902  1  0.81701300  0.66180700  0.39135300  1
  H  2909  1  0.13922050  0.39109700  0.67083400  1
  H  2913  1  0.20722220  0.35921730  0.57484030  1
  H  2918  1  0.31665550  0.39111650  0.67082850  1
  H  2920  1  0.37652370  0.35924030  0.57483330  1
  H  2927  1  0.52193000  0.37464950  0.27619050  1
  H  2931  1  0.48428600  0.34592910  0.37320590  1
  H  2936  1  0.34499350  0.37465250  0.27621650  1
  H  2938  1  0.31438000  0.34593110  0.37322890  1
  H  2945  1  0.67925600  0.64636710  0.68997390  1
  H  2949  1  0.70986500  0.67509550  0.59296150  1
  H  2954  1  0.50231900  0.64636860  0.68999940  1
  H  2956  1  0.53996400  0.67508900  0.59298500  1
  H  2963  1  0.81504700  0.21739700  0.84724700  1
  H  2967  1  0.87439670  0.12038180  0.81852280  1
  H  2972  1  0.63813000  0.21740400  0.84722500  1
  H  2974  1  0.70451220  0.12039030  0.81850130  1
  H  2981  1  0.38611170  0.80361680  0.11896480  1
  H  2985  1  0.31972700  0.90062850  0.14769150  1
  H  2990  1  0.20919670  0.80361930  0.11894530  1
  H  2992  1  0.14984400  0.90063200  0.14767100  1
  H  3143  1  0.93812380  0.21971850  0.90024150  1
  H  3147  1  0.90583280  0.13789700  0.92172900  1
  H  3152  1  0.95004650  0.20437100  0.04262500  1
  H  3154  1  0.92504200  0.11993500  0.05367800  1
  H  3161  1  0.56454350  0.80130630  0.06598230  1
  H  3165  1  0.47188400  0.88308290  0.04448070  1
  H  3170  1  0.70346400  0.81664310  0.92357790  1
  H  3172  1  0.60503970  0.90104791  0.91251769  1
  H  3179  1  0.64736380  0.42764800  0.27386100  1
  H  3183  1  0.53323600  0.44914230  0.35566330  1
  H  3188  1  0.64394120  0.57002630  0.28923930  1
  H  3190  1  0.53449120  0.58106930  0.37366330  1
  H  3197  1  0.85532130  0.59338460  0.69228140  1
  H  3201  1  0.84450580  0.57191160  0.61046540  1
  H  3206  1  0.00957650  0.45096800  0.67696000  1
  H  3208  1  0.99561200  0.43991710  0.59252990  1
  H  3215  1  0.08611920  0.80129780  0.06595080  1
  H  3219  1  0.11841220  0.88311790  0.04446070  1
  H  3224  1  0.07420180  0.81664210  0.92356490  1
  H  3226  1  0.09921120  0.90107541  0.91251019  1
  H  3233  1  0.45969600  0.21971550  0.90020950  1
  H  3237  1  0.55235650  0.13793800  0.92171000  1
  H  3242  1  0.32077830  0.20437650  0.04261650  1
  H  3244  1  0.41920300  0.11997150  0.05367450  1
  H  3251  1  0.37688200  0.59337110  0.69233290  1
  H  3255  1  0.49101550  0.57187060  0.61053540  1
  H  3260  1  0.38029430  0.45099550  0.67695750  1
  H  3262  1  0.48974850  0.43994910  0.59253390  1
  H  3269  1  0.16892650  0.42763800  0.27390600  1
  H  3273  1  0.17973820  0.44911130  0.35572430  1
  H  3278  1  0.01466000  0.57004830  0.28923530  1
  H  3280  1  0.02861970  0.58109680  0.37366880  1
  H  3431  1  0.02580950  0.92572700  0.19549000  1
  H  3435  1  0.98499350  0.92746860  0.12120640  1
  H  3440  1  0.95319750  0.08099360  0.19028640  1
  H  3442  1  0.91209250  0.07610710  0.11818790  1
  H  3449  1  0.65337170  0.09530880  0.77068780  1
  H  3453  1  0.54004970  0.09354980  0.84501880  1
  H  3458  1  0.73083750  0.94004950  0.77593550  1
  H  3460  1  0.61277250  0.94492100  0.84804400  1
  H  3467  1  0.44098750  0.72289400  0.56792200  1
  H  3471  1  0.40205900  0.64851800  0.56614900  1
  H  3476  1  0.52365350  0.71767450  0.41265150  1
  H  3478  1  0.47771450  0.64556350  0.41751650  1
  H  3485  1  0.23819100  0.29809710  0.39831390  1
  H  3489  1  0.12307500  0.37238960  0.40007340  1
  H  3494  1  0.16038270  0.30330930  0.55357030  1
  H  3496  1  0.04717520  0.37538590  0.54870070  1
  H  3503  1  0.50057450  0.30335180  0.55353780  1
  H  3507  1  0.54653470  0.37544390  0.54868170  1
  H  3512  1  0.58326080  0.29812010  0.39826690  1
  H  3514  1  0.62221200  0.37248260  0.40003640  1
  H  3521  1  0.86385480  0.71770900  0.41262000  1
  H  3525  1  0.97706400  0.64563750  0.41749050  1
  H  3530  1  0.78604980  0.72292800  0.56787500  1
  H  3532  1  0.90117100  0.64864200  0.56611800  1
  H  3539  1  0.07104880  0.94002050  0.77590450  1
  H  3543  1  0.11215600  0.94490550  0.84800150  1
  H  3548  1  0.99843050  0.09528830  0.77070530  1
  H  3550  1  0.03924520  0.09354380  0.84498980  1
  H  3557  1  0.29340380  0.08097160  0.19025940  1
  H  3561  1  0.41146900  0.07610010  0.11815190  1
  H  3566  1  0.37086580  0.92571350  0.19550350  1
  H  3568  1  0.48419100  0.92747010  0.12117290  1
  N  707  1  0.77569850  0.72082500  0.20735900  1
  N  716  1  0.70018050  0.76516400  0.24938700  1
  N  718  1  0.78104450  0.78023650  0.26170450  1
  N  719  1  0.81611000  0.75980500  0.24204600  1
  N  725  1  0.70316650  0.28067650  0.79262350  1
  N  734  1  0.71403350  0.23633350  0.75058950  1
  N  736  1  0.82228200  0.22128950  0.73826350  1
  N  737  1  0.81724850  0.24171800  0.75793000  1
  N  743  1  0.49578450  0.20810800  0.27994300  1
  N  752  1  0.46460150  0.25015200  0.23561100  1
  N  754  1  0.56054000  0.26246550  0.22054750  1
  N  755  1  0.57517300  0.24280150  0.24097650  1
  N  761  1  0.98305800  0.79336800  0.72009000  1
  N  770  1  0.94957750  0.75133700  0.76442800  1
  N  772  1  0.04277150  0.73901400  0.77948600  1
  N  773  1  0.05817200  0.75867750  0.75905650  1
  N  779  1  0.22430550  0.28065800  0.79263600  1
  N  788  1  0.29982250  0.23632450  0.75060650  1
  N  790  1  0.21896150  0.22124800  0.73828800  1
  N  791  1  0.18389600  0.24167800  0.75794700  1
  N  797  1  0.29683150  0.72081350  0.20737850  1
  N  806  1  0.28596600  0.76515700  0.24941100  1
  N  808  1  0.17771750  0.78020200  0.26173600  1
  N  809  1  0.18275100  0.75977300  0.24207000  1
  N  815  1  0.50421150  0.79337650  0.72005350  1
  N  824  1  0.53539350  0.75133650  0.76438650  1
  N  826  1  0.43945500  0.73902300  0.77945300  1
  N  827  1  0.42482050  0.75868800  0.75902400  1
  N  833  1  0.01694050  0.20811100  0.27990900  1
  N  842  1  0.05042250  0.25014200  0.23557100  1
  N  844  1  0.95722800  0.26246550  0.22051250  1
  N  845  1  0.94182850  0.24280300  0.24094100  1
  N  995  1  0.08392350  0.61438700  0.14325900  1
  N  1004  1  0.15917650  0.61438250  0.14324750  1
  N  1006  1  0.11250600  0.69443850  0.11660250  1
  N  1007  1  0.07718900  0.69443900  0.11660700  1
  N  1013  1  0.84082300  0.38710600  0.85675800  1
  N  1022  1  0.91607350  0.38709950  0.85674950  1
  N  1024  1  0.92281050  0.30704550  0.88339450  1
  N  1025  1  0.88749300  0.30704700  0.88339800  1
  N  1031  1  0.69757050  0.14401200  0.38636700  1
  N  1040  1  0.77281200  0.14402250  0.38636250  1
  N  1042  1  0.80620700  0.11735050  0.30631550  1
  N  1043  1  0.77089150  0.11734700  0.30631800  1
  N  1049  1  0.22717650  0.85747050  0.61364050  1
  N  1058  1  0.30241550  0.85748350  0.61363650  1
  N  1060  1  0.22909650  0.88414150  0.69368950  1
  N  1061  1  0.19378400  0.88413450  0.69369050  1
  N  1067  1  0.43295750  0.84236800  0.36782800  1
  N  1076  1  0.35753950  0.84236900  0.36783800  1
  N  1078  1  0.40603500  0.86640400  0.28691900  1
  N  1079  1  0.44131550  0.86640350  0.28691350  1
  N  1085  1  0.64246250  0.15912350  0.63216150  1
  N  1094  1  0.56704400  0.15912300  0.63217200  1
  N  1096  1  0.55868950  0.13508550  0.71308550  1
  N  1097  1  0.59396800  0.13508500  0.71308000  1
  N  1103  1  0.80079150  0.63290650  0.84162750  1
  N  1112  1  0.72538200  0.63290850  0.84161850  1
  N  1114  1  0.69297250  0.71382550  0.86565750  1
  N  1115  1  0.72824800  0.71382400  0.86566300  1
  N  1121  1  0.27461350  0.36857650  0.15838250  1
  N  1130  1  0.19920450  0.36857800  0.15837400  1
  N  1132  1  0.27175150  0.28766000  0.13433600  1
  N  1133  1  0.30702550  0.28766150  0.13434050  1
  N  1283  1  0.90190400  0.64405700  0.97307800  1
  N  1292  1  0.91195633  0.63564917  0.03098717  1
  N  1294  1  0.93265100  0.70755250  0.00188250  1
  N  1295  1  0.92953700  0.71086300  0.97378400  1
  N  1301  1  0.51832400  0.35740000  0.02693800  1
  N  1310  1  0.57784200  0.36581900  0.96903600  1
  N  1312  1  0.64138550  0.29393200  0.99813700  1
  N  1313  1  0.61348600  0.29061700  0.02623800  1
  N  1319  1  0.54524000  0.97381450  0.35664850  1
  N  1328  1  0.54688800  0.03171567  0.36507933  1
  N  1330  1  0.63949950  0.00261650  0.29318550  1
  N  1331  1  0.63969600  0.97451900  0.28986500  1
  N  1337  1  0.87503050  0.02768300  0.64329100  1
  N  1346  1  0.94295200  0.96977000  0.63488900  1
  N  1348  1  0.93455700  0.99885850  0.70680150  1
  N  1349  1  0.90335800  0.02696650  0.71010450  1
  N  1355  1  0.09809300  0.35742700  0.02692100  1
  N  1364  1  0.08803400  0.36584650  0.96902550  1
  N  1366  1  0.06735250  0.29392850  0.99811550  1
  N  1367  1  0.07046400  0.29061950  0.02621650  1
  N  1373  1  0.48167150  0.64409000  0.97306200  1
  N  1382  1  0.42215333  0.63567267  0.03096767  1
  N  1384  1  0.35861300  0.70755650  0.00186450  1
  N  1385  1  0.38651200  0.71087200  0.97376400  1
  N  1391  1  0.45476400  0.02766750  0.64335850  1
  N  1400  1  0.45311100  0.96978500  0.63491200  1
  N  1402  1  0.36049600  0.99887300  0.70681900  1
  N  1403  1  0.36030200  0.02697000  0.71013900  1
  N  1409  1  0.12497700  0.97380650  0.35670350  1
  N  1418  1  0.05704050  0.03172817  0.36509883  1
  N  1420  1  0.06543800  0.00262800  0.29319900  1
  N  1421  1  0.09664250  0.97452250  0.28989250  1
  N  1571  1  0.95191800  0.45939000  0.15999500  1
  N  1580  1  0.91933350  0.52592200  0.15875400  1
  N  1582  1  0.96224150  0.50957350  0.22016550  1
  N  1583  1  0.97702300  0.47816700  0.22111100  1
  N  1589  1  0.57052600  0.54211300  0.84000500  1
  N  1598  1  0.60323500  0.47559250  0.84129050  1
  N  1600  1  0.69119150  0.49193450  0.77984250  1
  N  1601  1  0.67549550  0.52333800  0.77887600  1
  N  1607  1  0.41055950  0.16069900  0.54140000  1
  N  1616  1  0.44456400  0.15942200  0.47486800  1
  N  1618  1  0.47104400  0.22088000  0.49122100  1
  N  1619  1  0.45438700  0.22184400  0.52262600  1
  N  1625  1  0.11187750  0.84070050  0.45864650  1
  N  1634  1  0.07809200  0.84197400  0.52516700  1
  N  1636  1  0.18239600  0.78055350  0.50881950  1
  N  1637  1  0.19811750  0.77960200  0.47741400  1
  N  1643  1  0.55542750  0.84207150  0.52512350  1
  N  1652  1  0.58945650  0.84077600  0.45859500  1
  N  1654  1  0.54560550  0.77964350  0.47737250  1
  N  1655  1  0.52894200  0.78061200  0.50877600  1
  N  1661  1  0.92190400  0.15951900  0.47483200  1
  N  1670  1  0.88812050  0.16079700  0.54135300  1
  N  1672  1  0.80187950  0.22189050  0.52258350  1
  N  1673  1  0.81759900  0.22093600  0.49117800  1
  N  1679  1  0.08066700  0.47556000  0.84124600  1
  N  1688  1  0.04807800  0.54209100  0.84000900  1
  N  1690  1  0.02297500  0.52331350  0.77889150  1
  N  1691  1  0.03775950  0.49190850  0.77983450  1
  N  1697  1  0.39676200  0.52589650  0.15871150  1
  N  1706  1  0.42947050  0.45937600  0.15999600  1
  N  1708  1  0.32450000  0.47815050  0.22112550  1
  N  1709  1  0.30880350  0.50955650  0.22015950  1
  N  2563  1  0.78782030  0.23059100  0.19045500  1
  N  2572  1  0.71230230  0.27493000  0.23248300  1
  N  2574  1  0.79316650  0.29000250  0.24480050  1
  N  2575  1  0.82823200  0.26957100  0.22514200  1
  N  2581  1  0.71528830  0.79044250  0.77571950  1
  N  2590  1  0.72615530  0.74609950  0.73368550  1
  N  2592  1  0.83440400  0.73105550  0.72135950  1
  N  2593  1  0.82937050  0.75148400  0.74102600  1
  N  2599  1  0.50790650  0.71787380  0.26303879  1
  N  2608  1  0.47672350  0.75991780  0.21870680  1
  N  2610  1  0.57266220  0.77223130  0.20364330  1
  N  2611  1  0.58729520  0.75256730  0.22407230  1
  N  2617  1  0.99517980  0.30313400  0.70318600  1
  N  2626  1  0.96169930  0.26110300  0.74752400  1
  N  2628  1  0.05489350  0.24878000  0.76258200  1
  N  2629  1  0.07029400  0.26844350  0.74215250  1
  N  2635  1  0.23642750  0.79042400  0.77573200  1
  N  2644  1  0.31194450  0.74609050  0.73370250  1
  N  2646  1  0.23108330  0.73101400  0.72138400  1
  N  2647  1  0.19601780  0.75144400  0.74104300  1
  N  2653  1  0.30895350  0.23057950  0.19047450  1
  N  2662  1  0.29808800  0.27492300  0.23250700  1
  N  2664  1  0.18983930  0.28996800  0.24483200  1
  N  2665  1  0.19487280  0.26953900  0.22516600  1
  N  2671  1  0.51633350  0.30314250  0.70314950  1
  N  2680  1  0.54751550  0.26110250  0.74748250  1
  N  2682  1  0.45157680  0.24878900  0.76254900  1
  N  2683  1  0.43694230  0.26845400  0.74212000  1
  N  2689  1  0.02906270  0.71787680  0.26300480  1
  N  2698  1  0.06254470  0.75990780  0.21866680  1
  N  2700  1  0.96935000  0.77223130  0.20360830  1
  N  2701  1  0.95395050  0.75256880  0.22403680  1
  N  2851  1  0.09604550  0.12415311  0.12635489  1
  N  2860  1  0.17129850  0.12414861  0.12634339  1
  N  2862  1  0.12462800  0.20420450  0.09969850  1
  N  2863  1  0.08931100  0.20420500  0.09970300  1
  N  2869  1  0.85294500  0.89687200  0.83985400  1
  N  2878  1  0.92819550  0.89686550  0.83984550  1
  N  2880  1  0.93493250  0.81681160  0.86649040  1
  N  2881  1  0.89961500  0.81681310  0.86649390  1
  N  2887  1  0.70969250  0.65377800  0.36946300  1
  N  2896  1  0.78493400  0.65378850  0.36945850  1
  N  2898  1  0.81832920  0.62711630  0.28941130  1
  N  2899  1  0.78301370  0.62711280  0.28941380  1
  N  2905  1  0.23929870  0.36723630  0.59673630  1
  N  2914  1  0.31453770  0.36724930  0.59673230  1
  N  2916  1  0.24121850  0.39390750  0.67678550  1
  N  2917  1  0.20590600  0.39390050  0.67678650  1
  N  2923  1  0.44507950  0.35213400  0.35092400  1
  N  2932  1  0.36966150  0.35213500  0.35093400  1
  N  2934  1  0.41815700  0.37617000  0.27001500  1
  N  2935  1  0.45343750  0.37616950  0.27000950  1
  N  2941  1  0.65458450  0.66888950  0.61525750  1
  N  2950  1  0.57916600  0.66888900  0.61526800  1
  N  2952  1  0.57081150  0.64485160  0.69618140  1
  N  2953  1  0.60609000  0.64485110  0.69617590  1
  N  2959  1  0.81291370  0.14267230  0.82472330  1
  N  2968  1  0.73750420  0.14267430  0.82471430  1
  N  2970  1  0.70509450  0.22359150  0.84875350  1
  N  2971  1  0.74037000  0.22359000  0.84875900  1
  N  2977  1  0.28673550  0.87834250  0.14147850  1
  N  2986  1  0.21132650  0.87834400  0.14147000  1
  N  2988  1  0.28387370  0.79742580  0.11743180  1
  N  2989  1  0.31914770  0.79742730  0.11743630  1
  N  3139  1  0.91402580  0.15382300  0.95617400  1
  N  3148  1  0.92409450  0.14539900  0.01406700  1
  N  3150  1  0.94477300  0.21731850  0.98497850  1
  N  3151  1  0.94165900  0.22062900  0.95688000  1
  N  3157  1  0.53044600  0.86716590  0.01003370  1
  N  3166  1  0.58996420  0.87558490  0.95213170  1
  N  3168  1  0.65350750  0.80369810  0.98123290  1
  N  3169  1  0.62560820  0.80038280  0.00933380  1
  N  3175  1  0.55736200  0.48358030  0.33974430  1
  N  3184  1  0.55901020  0.54146530  0.34819130  1
  N  3186  1  0.65162150  0.51238250  0.27628150  1
  N  3187  1  0.65181800  0.48428500  0.27296100  1
  N  3193  1  0.88715230  0.53744910  0.62638690  1
  N  3202  1  0.95507400  0.47953610  0.61798490  1
  N  3204  1  0.94667900  0.50862460  0.68989740  1
  N  3205  1  0.91548000  0.53673260  0.69320040  1
  N  3211  1  0.11021520  0.86719290  0.01001670  1
  N  3220  1  0.10015620  0.87561240  0.95212120  1
  N  3222  1  0.07947430  0.80369460  0.98121140  1
  N  3223  1  0.08258600  0.80038530  0.00931230  1
  N  3229  1  0.49379350  0.15385600  0.95615800  1
  N  3238  1  0.43427850  0.14543550  0.01406050  1
  N  3240  1  0.37073480  0.21732250  0.98496050  1
  N  3241  1  0.39863380  0.22063800  0.95686000  1
  N  3247  1  0.46688600  0.53743360  0.62645440  1
  N  3256  1  0.46523300  0.47955110  0.61800790  1
  N  3258  1  0.37261780  0.50863910  0.68991490  1
  N  3259  1  0.37242380  0.53673610  0.69323490  1
  N  3265  1  0.13709920  0.48357230  0.33979930  1
  N  3274  1  0.06916270  0.54147880  0.34820980  1
  N  3276  1  0.07755980  0.51239400  0.27629500  1
  N  3277  1  0.10876430  0.48428850  0.27298850  1
  N  3427  1  0.96404000  0.96915610  0.14309090  1
  N  3436  1  0.93145550  0.03568810  0.14184990  1
  N  3438  1  0.97436350  0.01933960  0.20326140  1
  N  3439  1  0.98914500  0.98793300  0.20420700  1
  N  3445  1  0.58264820  0.05187880  0.82310080  1
  N  3454  1  0.61535720  0.98535830  0.82438630  1
  N  3456  1  0.70331350  0.00170050  0.76293850  1
  N  3457  1  0.68761750  0.03310400  0.76197200  1
  N  3463  1  0.42268150  0.67046500  0.52449600  1
  N  3472  1  0.45668600  0.66918800  0.45796400  1
  N  3474  1  0.48316600  0.73064600  0.47431700  1
  N  3475  1  0.46650900  0.73161000  0.50572200  1
  N  3481  1  0.12399950  0.35046660  0.44174240  1
  N  3490  1  0.09021420  0.35173990  0.50826270  1
  N  3492  1  0.19451800  0.29031950  0.49191550  1
  N  3493  1  0.21023950  0.28936810  0.46050990  1
  N  3499  1  0.56754950  0.35183740  0.50821920  1
  N  3508  1  0.60157830  0.35054210  0.44169090  1
  N  3510  1  0.55772730  0.28940960  0.46046840  1
  N  3511  1  0.54106380  0.29037800  0.49187200  1
  N  3517  1  0.93402580  0.66928500  0.45792800  1
  N  3526  1  0.90024230  0.67056300  0.52444900  1
  N  3528  1  0.81400130  0.73165650  0.50567950  1
  N  3529  1  0.82972080  0.73070200  0.47427400  1
  N  3535  1  0.09278900  0.98532580  0.82434180  1
  N  3544  1  0.06020000  0.05185680  0.82310480  1
  N  3546  1  0.03509680  0.03307950  0.76198750  1
  N  3547  1  0.04988130  0.00167450  0.76293050  1
  N  3553  1  0.40888380  0.03566260  0.14180740  1
  N  3562  1  0.44159230  0.96914210  0.14309190  1
  N  3564  1  0.33662180  0.98791650  0.20422150  1
  N  3565  1  0.32092530  0.01932260  0.20325540  1
