# generated using pymatgen
data_H13C18(N3O)2
_symmetry_space_group_name_H-M   'P 1'
_cell_length_a   28.83390000
_cell_length_b   39.18560000
_cell_length_c   39.18560000
_cell_angle_alpha   90.00000000
_cell_angle_beta   90.00000000
_cell_angle_gamma   90.00000000
_symmetry_Int_Tables_number   1
_chemical_formula_structural   H13C18(N3O)2
_chemical_formula_sum   'H312 C432 N144 O48'
_cell_volume   44274.77775525
_cell_formula_units_Z   24
loop_
 _symmetry_equiv_pos_site_id
 _symmetry_equiv_pos_as_xyz
  1  'x, y, z'
loop_
 _atom_site_type_symbol
 _atom_site_label
 _atom_site_symmetry_multiplicity
 _atom_site_fract_x
 _atom_site_fract_y
 _atom_site_fract_z
 _atom_site_occupancy
  H  7  1  0.95665000  0.98047400  0.37156700  1
  H  16  1  0.01553400  0.95796900  0.28865900  1
  H  19  1  0.04497500  0.02723100  0.28196100  1
  H  20  1  0.00894800  0.05173300  0.26051100  1
  H  21  1  0.06197200  0.01420800  0.41064800  1
  H  22  1  0.02892400  0.03205300  0.38111900  1
  H  23  1  0.16137000  0.91727000  0.36337800  1
  H  24  1  0.14802800  0.90102200  0.32629300  1
  H  25  1  0.84859600  0.06705800  0.30097300  1
  H  26  1  0.83177600  0.04878300  0.33661300  1
  H  28  1  0.08061100  0.88846100  0.29734900  1
  H  30  1  0.13786100  0.94656900  0.40657500  1
  H  32  1  0.91010400  0.05193900  0.25164400  1
  H  34  1  0.84411500  0.99750900  0.36342200  1
  H  41  1  0.45660900  0.01975700  0.62863100  1
  H  50  1  0.51549500  0.04225900  0.71154700  1
  H  53  1  0.54493900  0.97308400  0.71829200  1
  H  54  1  0.50890900  0.94859500  0.73975300  1
  H  55  1  0.56202300  0.98600700  0.58956800  1
  H  56  1  0.52894400  0.96815900  0.61907900  1
  H  57  1  0.66156300  0.08274400  0.63696600  1
  H  58  1  0.64814400  0.09902000  0.67403000  1
  H  59  1  0.34860800  0.93312500  0.69921300  1
  H  60  1  0.33178300  0.95139200  0.66356700  1
  H  62  1  0.58065800  0.11176200  0.70286000  1
  H  64  1  0.63781300  0.05370300  0.59363900  1
  H  66  1  0.41046200  0.94826900  0.74862700  1
  H  68  1  0.34409800  0.00269100  0.63680200  1
  H  75  1  0.20655300  0.62859500  0.98046200  1
  H  84  1  0.26524900  0.71154900  0.95790200  1
  H  87  1  0.29476000  0.71832500  0.02711500  1
  H  88  1  0.25873400  0.73972800  0.05165800  1
  H  89  1  0.31205800  0.58966800  0.01421400  1
  H  90  1  0.27892800  0.61915300  0.03205600  1
  H  91  1  0.41126700  0.63698600  0.91713500  1
  H  92  1  0.39779300  0.67404600  0.90091500  1
  H  93  1  0.09842400  0.69913900  0.06704000  1
  H  94  1  0.08166100  0.66346300  0.04880600  1
  H  96  1  0.33035900  0.70294200  0.88839700  1
  H  98  1  0.38812000  0.59388100  0.94671200  1
  H  100  1  0.16089800  0.74873600  0.05199300  1
  H  102  1  0.09406600  0.63668000  0.99754700  1
  H  109  1  0.70659700  0.37157500  0.01982400  1
  H  118  1  0.76530200  0.28863400  0.04228000  1
  H  121  1  0.79476000  0.28190700  0.97300000  1
  H  122  1  0.75872600  0.26057500  0.94840100  1
  H  123  1  0.81198000  0.41056400  0.98601200  1
  H  124  1  0.77889000  0.38106100  0.96816400  1
  H  125  1  0.91124100  0.36326100  0.08307100  1
  H  126  1  0.89782700  0.32617800  0.09926500  1
  H  127  1  0.59842500  0.30118400  0.93314100  1
  H  128  1  0.58167000  0.33683000  0.95143800  1
  H  130  1  0.83043400  0.29725400  0.11179700  1
  H  132  1  0.88797000  0.40639100  0.05357800  1
  H  134  1  0.66114300  0.25145400  0.94820200  1
  H  136  1  0.59406900  0.36353900  0.00273900  1
  H  149  1  0.88962800  0.16080600  0.27372000  1
  H  150  1  0.90531800  0.12086600  0.15782700  1
  H  151  1  0.93122100  0.08508200  0.20330300  1
  H  152  1  0.88300700  0.19518900  0.08102700  1
  H  153  1  0.80764400  0.25669400  0.15017000  1
  H  154  1  0.82821400  0.21856300  0.19490500  1
  H  171  1  0.38945500  0.83941000  0.72646500  1
  H  172  1  0.40558600  0.87925600  0.84235700  1
  H  173  1  0.43147500  0.91502200  0.79686400  1
  H  174  1  0.38313000  0.80495900  0.91916600  1
  H  175  1  0.30760800  0.74353500  0.85004900  1
  H  176  1  0.32817700  0.78166200  0.80531300  1
  H  193  1  0.13890200  0.72641400  0.16079200  1
  H  194  1  0.15616000  0.84228900  0.12116400  1
  H  195  1  0.18185500  0.79674100  0.08539700  1
  H  196  1  0.13356100  0.91914300  0.19537100  1
  H  197  1  0.05772200  0.85015400  0.25672400  1
  H  198  1  0.07820800  0.80538500  0.21861500  1
  H  215  1  0.63869700  0.27384500  0.83940500  1
  H  216  1  0.65632200  0.15797900  0.87897000  1
  H  217  1  0.68199000  0.20354500  0.91472300  1
  H  218  1  0.63353000  0.08109900  0.80483600  1
  H  219  1  0.55766400  0.15007400  0.74348200  1
  H  220  1  0.57817500  0.19485300  0.78157200  1
  H  237  1  0.86098800  0.03005600  0.47141000  1
  H  238  1  0.74467700  0.94860000  0.43705300  1
  H  239  1  0.80760600  0.95996200  0.39943000  1
  H  240  1  0.61825900  0.95570800  0.49210400  1
  H  241  1  0.68811100  0.99882600  0.57672400  1
  H  242  1  0.75777200  0.00075000  0.54341400  1
  H  259  1  0.36095400  0.97024400  0.52876000  1
  H  260  1  0.24453300  0.05156400  0.56323500  1
  H  261  1  0.30748300  0.04020000  0.60084000  1
  H  262  1  0.11809500  0.04438800  0.50819700  1
  H  263  1  0.18803100  0.00151700  0.42349200  1
  H  264  1  0.25770200  0.99960400  0.45679500  1
  H  281  1  0.11093900  0.52866300  0.03000400  1
  H  282  1  0.99462600  0.56310700  0.94858300  1
  H  283  1  0.05755700  0.60071800  0.95998700  1
  H  284  1  0.86815000  0.50808900  0.95575100  1
  H  285  1  0.93804300  0.42340500  0.99869000  1
  H  286  1  0.00771600  0.45669000  0.00059500  1
  H  303  1  0.61102100  0.47156100  0.97033000  1
  H  304  1  0.49466900  0.43712000  0.05172000  1
  H  305  1  0.55758100  0.39949300  0.04031100  1
  H  306  1  0.36818200  0.49210700  0.04441300  1
  H  307  1  0.43813800  0.57683100  0.00159100  1
  H  308  1  0.50782700  0.54355700  0.99976000  1
  H  319  1  0.95665000  0.98047400  0.67780200  1
  H  328  1  0.01553400  0.95796900  0.59489400  1
  H  331  1  0.04497500  0.02723100  0.58819600  1
  H  332  1  0.00894800  0.05173300  0.56674600  1
  H  333  1  0.06197200  0.01420800  0.71688300  1
  H  334  1  0.02892400  0.03205300  0.68735400  1
  H  335  1  0.16137000  0.91727000  0.66961300  1
  H  336  1  0.14802800  0.90102200  0.63252800  1
  H  337  1  0.84859600  0.06705800  0.60720800  1
  H  338  1  0.83177600  0.04878300  0.64284800  1
  H  340  1  0.08061100  0.88846100  0.60358400  1
  H  342  1  0.13786100  0.94656900  0.71281000  1
  H  344  1  0.91010400  0.05193900  0.55787900  1
  H  346  1  0.84411500  0.99750900  0.66965700  1
  H  353  1  0.45660900  0.01975700  0.93486600  1
  H  362  1  0.51549500  0.04225900  0.01778190  1
  H  365  1  0.54493900  0.97308400  0.02452690  1
  H  366  1  0.50890900  0.94859500  0.04598790  1
  H  367  1  0.56202300  0.98600700  0.89580300  1
  H  368  1  0.52894400  0.96815900  0.92531400  1
  H  369  1  0.66156300  0.08274400  0.94320100  1
  H  370  1  0.64814400  0.09902000  0.98026500  1
  H  371  1  0.34860800  0.93312500  0.00544794  1
  H  372  1  0.33178300  0.95139200  0.96980200  1
  H  374  1  0.58065800  0.11176200  0.00909494  1
  H  376  1  0.63781300  0.05370300  0.89987400  1
  H  378  1  0.41046200  0.94826900  0.05486190  1
  H  380  1  0.34409800  0.00269100  0.94303700  1
  H  387  1  0.20655300  0.62859500  0.28669700  1
  H  396  1  0.26524900  0.71154900  0.26413700  1
  H  399  1  0.29476000  0.71832500  0.33333333  1
  H  400  1  0.25873400  0.73972800  0.35789300  1
  H  401  1  0.31205800  0.58966800  0.32044900  1
  H  402  1  0.27892800  0.61915300  0.33829100  1
  H  403  1  0.41126700  0.63698600  0.22337000  1
  H  404  1  0.39779300  0.67404600  0.20715000  1
  H  405  1  0.09842400  0.69913900  0.37327500  1
  H  406  1  0.08166100  0.66346300  0.35504100  1
  H  408  1  0.33035900  0.70294200  0.19463200  1
  H  410  1  0.38812000  0.59388100  0.25294700  1
  H  412  1  0.16089800  0.74873600  0.35822800  1
  H  414  1  0.09406600  0.63668000  0.30378200  1
  H  421  1  0.70659700  0.37157500  0.32605900  1
  H  430  1  0.76530200  0.28863400  0.34851500  1
  H  433  1  0.79476000  0.28190700  0.27923500  1
  H  434  1  0.75872600  0.26057500  0.25463600  1
  H  435  1  0.81198000  0.41056400  0.29224700  1
  H  436  1  0.77889000  0.38106100  0.27439900  1
  H  437  1  0.91124100  0.36326100  0.38930600  1
  H  438  1  0.89782700  0.32617800  0.40550000  1
  H  439  1  0.59842500  0.30118400  0.23937600  1
  H  440  1  0.58167000  0.33683000  0.25767300  1
  H  442  1  0.83043400  0.29725400  0.41803200  1
  H  444  1  0.88797000  0.40639100  0.35981300  1
  H  446  1  0.66114300  0.25145400  0.25443700  1
  H  448  1  0.59406900  0.36353900  0.30897400  1
  H  461  1  0.88962800  0.16080600  0.57995500  1
  H  462  1  0.90531800  0.12086600  0.46406200  1
  H  463  1  0.93122100  0.08508200  0.50953800  1
  H  464  1  0.88300700  0.19518900  0.38726200  1
  H  465  1  0.80764400  0.25669400  0.45640500  1
  H  466  1  0.82821400  0.21856300  0.50114000  1
  H  483  1  0.38945500  0.83941000  0.03269990  1
  H  484  1  0.40558600  0.87925600  0.14859200  1
  H  485  1  0.43147500  0.91502200  0.10309900  1
  H  486  1  0.38313000  0.80495900  0.22540100  1
  H  487  1  0.30760800  0.74353500  0.15628400  1
  H  488  1  0.32817700  0.78166200  0.11154800  1
  H  505  1  0.13890200  0.72641400  0.46702700  1
  H  506  1  0.15616000  0.84228900  0.42739900  1
  H  507  1  0.18185500  0.79674100  0.39163200  1
  H  508  1  0.13356100  0.91914300  0.50160600  1
  H  509  1  0.05772200  0.85015400  0.56295900  1
  H  510  1  0.07820800  0.80538500  0.52485000  1
  H  527  1  0.63869700  0.27384500  0.14564000  1
  H  528  1  0.65632200  0.15797900  0.18520500  1
  H  529  1  0.68199000  0.20354500  0.22095800  1
  H  530  1  0.63353000  0.08109900  0.11107100  1
  H  531  1  0.55766400  0.15007400  0.04971690  1
  H  532  1  0.57817500  0.19485300  0.08780690  1
  H  549  1  0.86098800  0.03005600  0.77764500  1
  H  550  1  0.74467700  0.94860000  0.74328800  1
  H  551  1  0.80760600  0.95996200  0.70566500  1
  H  552  1  0.61825900  0.95570800  0.79833900  1
  H  553  1  0.68811100  0.99882600  0.88295900  1
  H  554  1  0.75777200  0.00075000  0.84964900  1
  H  571  1  0.36095400  0.97024400  0.83499500  1
  H  572  1  0.24453300  0.05156400  0.86947000  1
  H  573  1  0.30748300  0.04020000  0.90707500  1
  H  574  1  0.11809500  0.04438800  0.81443200  1
  H  575  1  0.18803100  0.00151700  0.72972700  1
  H  576  1  0.25770200  0.99960400  0.76303000  1
  H  593  1  0.11093900  0.52866300  0.33623900  1
  H  594  1  0.99462600  0.56310700  0.25481800  1
  H  595  1  0.05755700  0.60071800  0.26622200  1
  H  596  1  0.86815000  0.50808900  0.26198600  1
  H  597  1  0.93804300  0.42340500  0.30492500  1
  H  598  1  0.00771600  0.45669000  0.30683000  1
  H  615  1  0.61102100  0.47156100  0.27656500  1
  H  616  1  0.49466900  0.43712000  0.35795500  1
  H  617  1  0.55758100  0.39949300  0.34654600  1
  H  618  1  0.36818200  0.49210700  0.35064800  1
  H  619  1  0.43813800  0.57683100  0.30782600  1
  H  620  1  0.50782700  0.54355700  0.30599500  1
  H  631  1  0.95665000  0.98047400  0.98403700  1
  H  640  1  0.01553400  0.95796900  0.90112900  1
  H  643  1  0.04497500  0.02723100  0.89443100  1
  H  644  1  0.00894800  0.05173300  0.87298100  1
  H  645  1  0.06197200  0.01420800  0.02311790  1
  H  646  1  0.02892400  0.03205300  0.99358900  1
  H  647  1  0.16137000  0.91727000  0.97584800  1
  H  648  1  0.14802800  0.90102200  0.93876300  1
  H  649  1  0.84859600  0.06705800  0.91344300  1
  H  650  1  0.83177600  0.04878300  0.94908300  1
  H  652  1  0.08061100  0.88846100  0.90981900  1
  H  654  1  0.13786100  0.94656900  0.01904490  1
  H  656  1  0.91010400  0.05193900  0.86411400  1
  H  658  1  0.84411500  0.99750900  0.97589200  1
  H  665  1  0.45660900  0.01975700  0.24110100  1
  H  674  1  0.51549500  0.04225900  0.32401700  1
  H  677  1  0.54493900  0.97308400  0.33076200  1
  H  678  1  0.50890900  0.94859500  0.35222300  1
  H  679  1  0.56202300  0.98600700  0.20203800  1
  H  680  1  0.52894400  0.96815900  0.23154900  1
  H  681  1  0.66156300  0.08274400  0.24943600  1
  H  682  1  0.64814400  0.09902000  0.28650000  1
  H  683  1  0.34860800  0.93312500  0.31168300  1
  H  684  1  0.33178300  0.95139200  0.27603700  1
  H  686  1  0.58065800  0.11176200  0.31533000  1
  H  688  1  0.63781300  0.05370300  0.20610900  1
  H  690  1  0.41046200  0.94826900  0.36109700  1
  H  692  1  0.34409800  0.00269100  0.24927200  1
  H  699  1  0.20655300  0.62859500  0.59293200  1
  H  708  1  0.26524900  0.71154900  0.57037200  1
  H  711  1  0.29476000  0.71832500  0.63958500  1
  H  712  1  0.25873400  0.73972800  0.66412800  1
  H  713  1  0.31205800  0.58966800  0.62668400  1
  H  714  1  0.27892800  0.61915300  0.64452600  1
  H  715  1  0.41126700  0.63698600  0.52960500  1
  H  716  1  0.39779300  0.67404600  0.51338500  1
  H  717  1  0.09842400  0.69913900  0.67951000  1
  H  718  1  0.08166100  0.66346300  0.66127600  1
  H  720  1  0.33035900  0.70294200  0.50086700  1
  H  722  1  0.38812000  0.59388100  0.55918200  1
  H  724  1  0.16089800  0.74873600  0.66446300  1
  H  726  1  0.09406600  0.63668000  0.61001700  1
  H  733  1  0.70659700  0.37157500  0.63229400  1
  H  742  1  0.76530200  0.28863400  0.65475000  1
  H  745  1  0.79476000  0.28190700  0.58547000  1
  H  746  1  0.75872600  0.26057500  0.56087100  1
  H  747  1  0.81198000  0.41056400  0.59848200  1
  H  748  1  0.77889000  0.38106100  0.58063400  1
  H  749  1  0.91124100  0.36326100  0.69554100  1
  H  750  1  0.89782700  0.32617800  0.71173500  1
  H  751  1  0.59842500  0.30118400  0.54561100  1
  H  752  1  0.58167000  0.33683000  0.56390800  1
  H  754  1  0.83043400  0.29725400  0.72426700  1
  H  756  1  0.88797000  0.40639100  0.66604800  1
  H  758  1  0.66114300  0.25145400  0.56067200  1
  H  760  1  0.59406900  0.36353900  0.61520900  1
  H  773  1  0.88962800  0.16080600  0.88619000  1
  H  774  1  0.90531800  0.12086600  0.77029700  1
  H  775  1  0.93122100  0.08508200  0.81577300  1
  H  776  1  0.88300700  0.19518900  0.69349700  1
  H  777  1  0.80764400  0.25669400  0.76264000  1
  H  778  1  0.82821400  0.21856300  0.80737500  1
  H  795  1  0.38945500  0.83941000  0.33893500  1
  H  796  1  0.40558600  0.87925600  0.45482700  1
  H  797  1  0.43147500  0.91502200  0.40933400  1
  H  798  1  0.38313000  0.80495900  0.53163600  1
  H  799  1  0.30760800  0.74353500  0.46251900  1
  H  800  1  0.32817700  0.78166200  0.41778300  1
  H  817  1  0.13890200  0.72641400  0.77326200  1
  H  818  1  0.15616000  0.84228900  0.73363400  1
  H  819  1  0.18185500  0.79674100  0.69786700  1
  H  820  1  0.13356100  0.91914300  0.80784100  1
  H  821  1  0.05772200  0.85015400  0.86919400  1
  H  822  1  0.07820800  0.80538500  0.83108500  1
  H  839  1  0.63869700  0.27384500  0.45187500  1
  H  840  1  0.65632200  0.15797900  0.49144000  1
  H  841  1  0.68199000  0.20354500  0.52719300  1
  H  842  1  0.63353000  0.08109900  0.41730600  1
  H  843  1  0.55766400  0.15007400  0.35595200  1
  H  844  1  0.57817500  0.19485300  0.39404200  1
  H  861  1  0.86098800  0.03005600  0.08387990  1
  H  862  1  0.74467700  0.94860000  0.04952290  1
  H  863  1  0.80760600  0.95996200  0.01189990  1
  H  864  1  0.61825900  0.95570800  0.10457400  1
  H  865  1  0.68811100  0.99882600  0.18919400  1
  H  866  1  0.75777200  0.00075000  0.15588400  1
  H  883  1  0.36095400  0.97024400  0.14123000  1
  H  884  1  0.24453300  0.05156400  0.17570500  1
  H  885  1  0.30748300  0.04020000  0.21331000  1
  H  886  1  0.11809500  0.04438800  0.12066700  1
  H  887  1  0.18803100  0.00151700  0.03596190  1
  H  888  1  0.25770200  0.99960400  0.06926490  1
  H  905  1  0.11093900  0.52866300  0.64247400  1
  H  906  1  0.99462600  0.56310700  0.56105300  1
  H  907  1  0.05755700  0.60071800  0.57245700  1
  H  908  1  0.86815000  0.50808900  0.56822100  1
  H  909  1  0.93804300  0.42340500  0.61116000  1
  H  910  1  0.00771600  0.45669000  0.61306500  1
  H  927  1  0.61102100  0.47156100  0.58280000  1
  H  928  1  0.49466900  0.43712000  0.66419000  1
  H  929  1  0.55758100  0.39949300  0.65278100  1
  H  930  1  0.36818200  0.49210700  0.65688300  1
  H  931  1  0.43813800  0.57683100  0.61406100  1
  H  932  1  0.50782700  0.54355700  0.61223000  1
  C  1  1  0.98742300  0.00531500  0.32946000  1
  C  2  1  0.95133300  0.99819500  0.35270300  1
  C  3  1  0.90749600  0.01386900  0.35030700  1
  C  4  1  0.89825000  0.03628400  0.32255500  1
  C  5  1  0.93429100  0.04317200  0.29854600  1
  C  6  1  0.97914800  0.02817400  0.30187600  1
  C  9  1  0.02937300  0.98620100  0.33344900  1
  C  10  1  0.05725100  0.98773700  0.36351900  1
  C  11  1  0.09215100  0.96238600  0.36830900  1
  C  12  1  0.10230500  0.93778300  0.34242200  1
  C  13  1  0.07415400  0.93694800  0.31257900  1
  C  14  1  0.03752500  0.96041600  0.30909300  1
  C  35  1  0.48742000  0.99488300  0.67070800  1
  C  36  1  0.45131700  0.00200900  0.64747500  1
  C  37  1  0.40747900  0.98633400  0.64988100  1
  C  38  1  0.39825400  0.96390500  0.67762600  1
  C  39  1  0.43429900  0.95702700  0.70163200  1
  C  40  1  0.47914200  0.97204800  0.69831200  1
  C  43  1  0.52931500  0.01406600  0.66673700  1
  C  44  1  0.55723000  0.01249000  0.63668500  1
  C  45  1  0.59214400  0.03783600  0.63190800  1
  C  46  1  0.60230900  0.06242600  0.65780500  1
  C  47  1  0.57411700  0.06328400  0.68762700  1
  C  48  1  0.53749700  0.03981300  0.69111800  1
  C  69  1  0.23730400  0.67070800  0.00531700  1
  C  70  1  0.20124500  0.64742900  0.99821600  1
  C  71  1  0.15742700  0.64978400  0.01393000  1
  C  72  1  0.14816600  0.67751900  0.03636300  1
  C  73  1  0.18417500  0.70155800  0.04322700  1
  C  74  1  0.22900000  0.69829700  0.02816400  1
  C  77  1  0.27919200  0.66677500  0.98611900  1
  C  78  1  0.30720700  0.63677400  0.98773200  1
  C  79  1  0.34215000  0.63203500  0.96240100  1
  C  80  1  0.35219400  0.65790700  0.93775500  1
  C  81  1  0.32393600  0.68769400  0.93689000  1
  C  82  1  0.28728800  0.69114400  0.96034700  1
  C  103  1  0.73729700  0.32946300  0.99493400  1
  C  104  1  0.70125900  0.35274900  0.00206500  1
  C  105  1  0.65743200  0.35041200  0.98636900  1
  C  106  1  0.64816200  0.32272800  0.96387400  1
  C  107  1  0.68416100  0.29869100  0.95697100  1
  C  108  1  0.72899400  0.30191900  0.97203300  1
  C  111  1  0.77926100  0.33340000  0.01404500  1
  C  112  1  0.80719000  0.36344200  0.01248400  1
  C  113  1  0.84210400  0.36819600  0.03783000  1
  C  114  1  0.85218900  0.34231200  0.06245100  1
  C  115  1  0.82397600  0.31249700  0.06330000  1
  C  116  1  0.78732800  0.30905000  0.03984000  1
  C  137  1  0.84392800  0.23085000  0.11048600  1
  C  138  1  0.82818600  0.23626700  0.14429000  1
  C  139  1  0.83996800  0.21364200  0.17076900  1
  C  140  1  0.86755000  0.18464700  0.16374700  1
  C  142  1  0.87017200  0.20089000  0.10465500  1
  C  143  1  0.88239700  0.16163500  0.18964900  1
  C  144  1  0.90187400  0.12931000  0.18239800  1
  C  145  1  0.91663400  0.10811200  0.20927800  1
  C  146  1  0.91283300  0.11878000  0.24366900  1
  C  147  1  0.89373400  0.15147300  0.24955100  1
  C  155  1  0.92765600  0.09797700  0.27139800  1
  C  156  1  0.83469600  0.25436500  0.08343700  1
  C  159  1  0.34398500  0.76933300  0.88971400  1
  C  160  1  0.32819600  0.76393800  0.85591900  1
  C  161  1  0.33997500  0.78656400  0.82944200  1
  C  162  1  0.36760600  0.81553600  0.83645200  1
  C  164  1  0.37030400  0.79925700  0.89553300  1
  C  165  1  0.38244300  0.83854500  0.81054500  1
  C  166  1  0.40204800  0.87083200  0.81778500  1
  C  167  1  0.41677400  0.89203100  0.79089500  1
  C  168  1  0.41286200  0.88138700  0.75650200  1
  C  169  1  0.39365500  0.84872500  0.75063200  1
  C  177  1  0.42765000  0.90218800  0.72876000  1
  C  178  1  0.33476200  0.74581900  0.91676200  1
  C  181  1  0.09426600  0.88975500  0.23095800  1
  C  182  1  0.07837100  0.85598700  0.23634200  1
  C  183  1  0.09009700  0.82949000  0.21372300  1
  C  184  1  0.11780000  0.83645500  0.18477500  1
  C  186  1  0.12065900  0.89553000  0.20105900  1
  C  187  1  0.13257000  0.81051900  0.16176800  1
  C  188  1  0.15238300  0.81772100  0.12954200  1
  C  189  1  0.16698800  0.79080000  0.10833700  1
  C  190  1  0.16274900  0.75640800  0.11891500  1
  C  191  1  0.14335800  0.75057600  0.15152600  1
  C  199  1  0.17735600  0.72861400  0.09810800  1
  C  200  1  0.08506600  0.91682100  0.25445900  1
  C  203  1  0.59420400  0.11047800  0.76925700  1
  C  204  1  0.57830600  0.14424400  0.76386900  1
  C  205  1  0.59005600  0.17074600  0.78647500  1
  C  206  1  0.61777400  0.16379100  0.81541600  1
  C  208  1  0.62058300  0.10470100  0.79916300  1
  C  209  1  0.63257200  0.18973300  0.83840400  1
  C  210  1  0.65247300  0.18254500  0.87060500  1
  C  211  1  0.66706300  0.20947800  0.89180200  1
  C  212  1  0.66271100  0.24387000  0.88124400  1
  C  213  1  0.64323400  0.24968800  0.84866100  1
  C  221  1  0.67725600  0.27168100  0.90205300  1
  C  222  1  0.58496500  0.08341800  0.74576600  1
  C  225  1  0.64614700  0.97660800  0.53800600  1
  C  226  1  0.68752900  0.98936000  0.55238100  1
  C  227  1  0.72844200  0.99060300  0.53279500  1
  C  228  1  0.72809900  0.97898700  0.49858100  1
  C  230  1  0.64743300  0.96444800  0.50416500  1
  C  231  1  0.76665100  0.98271000  0.47620500  1
  C  232  1  0.76939800  0.96583600  0.44437500  1
  C  233  1  0.80638500  0.97289300  0.42206600  1
  C  234  1  0.84099400  0.99704200  0.43067100  1
  C  235  1  0.83748100  0.01230300  0.46330800  1
  C  243  1  0.87770800  0.00592700  0.40784300  1
  C  244  1  0.60633600  0.97973200  0.55346600  1
  C  247  1  0.14601900  0.02359100  0.46226100  1
  C  248  1  0.18743300  0.01093500  0.44785300  1
  C  249  1  0.22835500  0.00970300  0.46743200  1
  C  250  1  0.22798900  0.02124400  0.50167100  1
  C  252  1  0.14727600  0.03565300  0.49614100  1
  C  253  1  0.26656300  0.01753700  0.52402900  1
  C  254  1  0.26928800  0.03436400  0.55588200  1
  C  255  1  0.30628200  0.02730200  0.57818700  1
  C  256  1  0.34092600  0.00319200  0.56954300  1
  C  257  1  0.33742800  0.98797200  0.53688800  1
  C  265  1  0.37765000  0.99429100  0.59235500  1
  C  266  1  0.10621900  0.02046700  0.44679100  1
  C  269  1  0.89604700  0.46215900  0.97656500  1
  C  270  1  0.93746100  0.44774600  0.98922000  1
  C  271  1  0.97838500  0.46732400  0.99046500  1
  C  272  1  0.97803400  0.50156200  0.97891500  1
  C  274  1  0.89732700  0.49602900  0.96448600  1
  C  275  1  0.01661600  0.52390600  0.98263300  1
  C  276  1  0.01936400  0.55575700  0.96579800  1
  C  277  1  0.05634500  0.57806400  0.97288500  1
  C  278  1  0.09095700  0.56942800  0.99702100  1
  C  279  1  0.08745000  0.53677100  0.01223900  1
  C  287  1  0.12764900  0.59225000  0.00597300  1
  C  288  1  0.85625000  0.44668900  0.97972900  1
  C  291  1  0.39611100  0.53804200  0.02362600  1
  C  292  1  0.43754800  0.55249300  0.01106200  1
  C  293  1  0.47848300  0.53292300  0.00987000  1
  C  294  1  0.47812200  0.49868300  0.02140800  1
  C  296  1  0.39738400  0.50419800  0.03577000  1
  C  297  1  0.51667700  0.47631500  0.01767400  1
  C  298  1  0.51940700  0.44446400  0.03450700  1
  C  299  1  0.55638100  0.42215000  0.02741700  1
  C  300  1  0.59100000  0.43078300  0.00328400  1
  C  301  1  0.58751100  0.46344300  0.98807400  1
  C  309  1  0.62767900  0.40795600  0.99432600  1
  C  310  1  0.35632100  0.55353000  0.02048000  1
  C  313  1  0.98742300  0.00531500  0.63569500  1
  C  314  1  0.95133300  0.99819500  0.65893800  1
  C  315  1  0.90749600  0.01386900  0.65654200  1
  C  316  1  0.89825000  0.03628400  0.62879000  1
  C  317  1  0.93429100  0.04317200  0.60478100  1
  C  318  1  0.97914800  0.02817400  0.60811100  1
  C  321  1  0.02937300  0.98620100  0.63968400  1
  C  322  1  0.05725100  0.98773700  0.66975400  1
  C  323  1  0.09215100  0.96238600  0.67454400  1
  C  324  1  0.10230500  0.93778300  0.64865700  1
  C  325  1  0.07415400  0.93694800  0.61881400  1
  C  326  1  0.03752500  0.96041600  0.61532800  1
  C  347  1  0.48742000  0.99488300  0.97694300  1
  C  348  1  0.45131700  0.00200900  0.95371000  1
  C  349  1  0.40747900  0.98633400  0.95611600  1
  C  350  1  0.39825400  0.96390500  0.98386100  1
  C  351  1  0.43429900  0.95702700  0.00786694  1
  C  352  1  0.47914200  0.97204800  0.00454694  1
  C  355  1  0.52931500  0.01406600  0.97297200  1
  C  356  1  0.55723000  0.01249000  0.94292000  1
  C  357  1  0.59214400  0.03783600  0.93814300  1
  C  358  1  0.60230900  0.06242600  0.96404000  1
  C  359  1  0.57411700  0.06328400  0.99386200  1
  C  360  1  0.53749700  0.03981300  0.99735300  1
  C  381  1  0.23730400  0.67070800  0.31155200  1
  C  382  1  0.20124500  0.64742900  0.30445100  1
  C  383  1  0.15742700  0.64978400  0.32016500  1
  C  384  1  0.14816600  0.67751900  0.34259800  1
  C  385  1  0.18417500  0.70155800  0.34946200  1
  C  386  1  0.22900000  0.69829700  0.33439900  1
  C  389  1  0.27919200  0.66677500  0.29235400  1
  C  390  1  0.30720700  0.63677400  0.29396700  1
  C  391  1  0.34215000  0.63203500  0.26863600  1
  C  392  1  0.35219400  0.65790700  0.24399000  1
  C  393  1  0.32393600  0.68769400  0.24312500  1
  C  394  1  0.28728800  0.69114400  0.26658200  1
  C  415  1  0.73729700  0.32946300  0.30116900  1
  C  416  1  0.70125900  0.35274900  0.30830000  1
  C  417  1  0.65743200  0.35041200  0.29260400  1
  C  418  1  0.64816200  0.32272800  0.27010900  1
  C  419  1  0.68416100  0.29869100  0.26320600  1
  C  420  1  0.72899400  0.30191900  0.27826800  1
  C  423  1  0.77926100  0.33340000  0.32028000  1
  C  424  1  0.80719000  0.36344200  0.31871900  1
  C  425  1  0.84210400  0.36819600  0.34406500  1
  C  426  1  0.85218900  0.34231200  0.36868600  1
  C  427  1  0.82397600  0.31249700  0.36953500  1
  C  428  1  0.78732800  0.30905000  0.34607500  1
  C  449  1  0.84392800  0.23085000  0.41672100  1
  C  450  1  0.82818600  0.23626700  0.45052500  1
  C  451  1  0.83996800  0.21364200  0.47700400  1
  C  452  1  0.86755000  0.18464700  0.46998200  1
  C  454  1  0.87017200  0.20089000  0.41089000  1
  C  455  1  0.88239700  0.16163500  0.49588400  1
  C  456  1  0.90187400  0.12931000  0.48863300  1
  C  457  1  0.91663400  0.10811200  0.51551300  1
  C  458  1  0.91283300  0.11878000  0.54990400  1
  C  459  1  0.89373400  0.15147300  0.55578600  1
  C  467  1  0.92765600  0.09797700  0.57763300  1
  C  468  1  0.83469600  0.25436500  0.38967200  1
  C  471  1  0.34398500  0.76933300  0.19594900  1
  C  472  1  0.32819600  0.76393800  0.16215400  1
  C  473  1  0.33997500  0.78656400  0.13567700  1
  C  474  1  0.36760600  0.81553600  0.14268700  1
  C  476  1  0.37030400  0.79925700  0.20176800  1
  C  477  1  0.38244300  0.83854500  0.11678000  1
  C  478  1  0.40204800  0.87083200  0.12402000  1
  C  479  1  0.41677400  0.89203100  0.09712990  1
  C  480  1  0.41286200  0.88138700  0.06273690  1
  C  481  1  0.39365500  0.84872500  0.05686690  1
  C  489  1  0.42765000  0.90218800  0.03499490  1
  C  490  1  0.33476200  0.74581900  0.22299700  1
  C  493  1  0.09426600  0.88975500  0.53719300  1
  C  494  1  0.07837100  0.85598700  0.54257700  1
  C  495  1  0.09009700  0.82949000  0.51995800  1
  C  496  1  0.11780000  0.83645500  0.49101000  1
  C  498  1  0.12065900  0.89553000  0.50729400  1
  C  499  1  0.13257000  0.81051900  0.46800300  1
  C  500  1  0.15238300  0.81772100  0.43577700  1
  C  501  1  0.16698800  0.79080000  0.41457200  1
  C  502  1  0.16274900  0.75640800  0.42515000  1
  C  503  1  0.14335800  0.75057600  0.45776100  1
  C  511  1  0.17735600  0.72861400  0.40434300  1
  C  512  1  0.08506600  0.91682100  0.56069400  1
  C  515  1  0.59420400  0.11047800  0.07549190  1
  C  516  1  0.57830600  0.14424400  0.07010390  1
  C  517  1  0.59005600  0.17074600  0.09270990  1
  C  518  1  0.61777400  0.16379100  0.12165100  1
  C  520  1  0.62058300  0.10470100  0.10539800  1
  C  521  1  0.63257200  0.18973300  0.14463900  1
  C  522  1  0.65247300  0.18254500  0.17684000  1
  C  523  1  0.66706300  0.20947800  0.19803700  1
  C  524  1  0.66271100  0.24387000  0.18747900  1
  C  525  1  0.64323400  0.24968800  0.15489600  1
  C  533  1  0.67725600  0.27168100  0.20828800  1
  C  534  1  0.58496500  0.08341800  0.05200090  1
  C  537  1  0.64614700  0.97660800  0.84424100  1
  C  538  1  0.68752900  0.98936000  0.85861600  1
  C  539  1  0.72844200  0.99060300  0.83903000  1
  C  540  1  0.72809900  0.97898700  0.80481600  1
  C  542  1  0.64743300  0.96444800  0.81040000  1
  C  543  1  0.76665100  0.98271000  0.78244000  1
  C  544  1  0.76939800  0.96583600  0.75061000  1
  C  545  1  0.80638500  0.97289300  0.72830100  1
  C  546  1  0.84099400  0.99704200  0.73690600  1
  C  547  1  0.83748100  0.01230300  0.76954300  1
  C  555  1  0.87770800  0.00592700  0.71407800  1
  C  556  1  0.60633600  0.97973200  0.85970100  1
  C  559  1  0.14601900  0.02359100  0.76849600  1
  C  560  1  0.18743300  0.01093500  0.75408800  1
  C  561  1  0.22835500  0.00970300  0.77366700  1
  C  562  1  0.22798900  0.02124400  0.80790600  1
  C  564  1  0.14727600  0.03565300  0.80237600  1
  C  565  1  0.26656300  0.01753700  0.83026400  1
  C  566  1  0.26928800  0.03436400  0.86211700  1
  C  567  1  0.30628200  0.02730200  0.88442200  1
  C  568  1  0.34092600  0.00319200  0.87577800  1
  C  569  1  0.33742800  0.98797200  0.84312300  1
  C  577  1  0.37765000  0.99429100  0.89859000  1
  C  578  1  0.10621900  0.02046700  0.75302600  1
  C  581  1  0.89604700  0.46215900  0.28280000  1
  C  582  1  0.93746100  0.44774600  0.29545500  1
  C  583  1  0.97838500  0.46732400  0.29670000  1
  C  584  1  0.97803400  0.50156200  0.28515000  1
  C  586  1  0.89732700  0.49602900  0.27072100  1
  C  587  1  0.01661600  0.52390600  0.28886800  1
  C  588  1  0.01936400  0.55575700  0.27203300  1
  C  589  1  0.05634500  0.57806400  0.27912000  1
  C  590  1  0.09095700  0.56942800  0.30325600  1
  C  591  1  0.08745000  0.53677100  0.31847400  1
  C  599  1  0.12764900  0.59225000  0.31220800  1
  C  600  1  0.85625000  0.44668900  0.28596400  1
  C  603  1  0.39611100  0.53804200  0.32986100  1
  C  604  1  0.43754800  0.55249300  0.31729700  1
  C  605  1  0.47848300  0.53292300  0.31610500  1
  C  606  1  0.47812200  0.49868300  0.32764300  1
  C  608  1  0.39738400  0.50419800  0.34200500  1
  C  609  1  0.51667700  0.47631500  0.32390900  1
  C  610  1  0.51940700  0.44446400  0.34074200  1
  C  611  1  0.55638100  0.42215000  0.33365200  1
  C  612  1  0.59100000  0.43078300  0.30951900  1
  C  613  1  0.58751100  0.46344300  0.29430900  1
  C  621  1  0.62767900  0.40795600  0.30056100  1
  C  622  1  0.35632100  0.55353000  0.32671500  1
  C  625  1  0.98742300  0.00531500  0.94193000  1
  C  626  1  0.95133300  0.99819500  0.96517300  1
  C  627  1  0.90749600  0.01386900  0.96277700  1
  C  628  1  0.89825000  0.03628400  0.93502500  1
  C  629  1  0.93429100  0.04317200  0.91101600  1
  C  630  1  0.97914800  0.02817400  0.91434600  1
  C  633  1  0.02937300  0.98620100  0.94591900  1
  C  634  1  0.05725100  0.98773700  0.97598900  1
  C  635  1  0.09215100  0.96238600  0.98077900  1
  C  636  1  0.10230500  0.93778300  0.95489200  1
  C  637  1  0.07415400  0.93694800  0.92504900  1
  C  638  1  0.03752500  0.96041600  0.92156300  1
  C  659  1  0.48742000  0.99488300  0.28317800  1
  C  660  1  0.45131700  0.00200900  0.25994500  1
  C  661  1  0.40747900  0.98633400  0.26235100  1
  C  662  1  0.39825400  0.96390500  0.29009600  1
  C  663  1  0.43429900  0.95702700  0.31410200  1
  C  664  1  0.47914200  0.97204800  0.31078200  1
  C  667  1  0.52931500  0.01406600  0.27920700  1
  C  668  1  0.55723000  0.01249000  0.24915500  1
  C  669  1  0.59214400  0.03783600  0.24437800  1
  C  670  1  0.60230900  0.06242600  0.27027500  1
  C  671  1  0.57411700  0.06328400  0.30009700  1
  C  672  1  0.53749700  0.03981300  0.30358800  1
  C  693  1  0.23730400  0.67070800  0.61778700  1
  C  694  1  0.20124500  0.64742900  0.61068600  1
  C  695  1  0.15742700  0.64978400  0.62640000  1
  C  696  1  0.14816600  0.67751900  0.64883300  1
  C  697  1  0.18417500  0.70155800  0.65569700  1
  C  698  1  0.22900000  0.69829700  0.64063400  1
  C  701  1  0.27919200  0.66677500  0.59858900  1
  C  702  1  0.30720700  0.63677400  0.60020200  1
  C  703  1  0.34215000  0.63203500  0.57487100  1
  C  704  1  0.35219400  0.65790700  0.55022500  1
  C  705  1  0.32393600  0.68769400  0.54936000  1
  C  706  1  0.28728800  0.69114400  0.57281700  1
  C  727  1  0.73729700  0.32946300  0.60740400  1
  C  728  1  0.70125900  0.35274900  0.61453500  1
  C  729  1  0.65743200  0.35041200  0.59883900  1
  C  730  1  0.64816200  0.32272800  0.57634400  1
  C  731  1  0.68416100  0.29869100  0.56944100  1
  C  732  1  0.72899400  0.30191900  0.58450300  1
  C  735  1  0.77926100  0.33340000  0.62651500  1
  C  736  1  0.80719000  0.36344200  0.62495400  1
  C  737  1  0.84210400  0.36819600  0.65030000  1
  C  738  1  0.85218900  0.34231200  0.67492100  1
  C  739  1  0.82397600  0.31249700  0.67577000  1
  C  740  1  0.78732800  0.30905000  0.65231000  1
  C  761  1  0.84392800  0.23085000  0.72295600  1
  C  762  1  0.82818600  0.23626700  0.75676000  1
  C  763  1  0.83996800  0.21364200  0.78323900  1
  C  764  1  0.86755000  0.18464700  0.77621700  1
  C  766  1  0.87017200  0.20089000  0.71712500  1
  C  767  1  0.88239700  0.16163500  0.80211900  1
  C  768  1  0.90187400  0.12931000  0.79486800  1
  C  769  1  0.91663400  0.10811200  0.82174800  1
  C  770  1  0.91283300  0.11878000  0.85613900  1
  C  771  1  0.89373400  0.15147300  0.86202100  1
  C  779  1  0.92765600  0.09797700  0.88386800  1
  C  780  1  0.83469600  0.25436500  0.69590700  1
  C  783  1  0.34398500  0.76933300  0.50218400  1
  C  784  1  0.32819600  0.76393800  0.46838900  1
  C  785  1  0.33997500  0.78656400  0.44191200  1
  C  786  1  0.36760600  0.81553600  0.44892200  1
  C  788  1  0.37030400  0.79925700  0.50800300  1
  C  789  1  0.38244300  0.83854500  0.42301500  1
  C  790  1  0.40204800  0.87083200  0.43025500  1
  C  791  1  0.41677400  0.89203100  0.40336500  1
  C  792  1  0.41286200  0.88138700  0.36897200  1
  C  793  1  0.39365500  0.84872500  0.36310200  1
  C  801  1  0.42765000  0.90218800  0.34123000  1
  C  802  1  0.33476200  0.74581900  0.52923200  1
  C  805  1  0.09426600  0.88975500  0.84342800  1
  C  806  1  0.07837100  0.85598700  0.84881200  1
  C  807  1  0.09009700  0.82949000  0.82619300  1
  C  808  1  0.11780000  0.83645500  0.79724500  1
  C  810  1  0.12065900  0.89553000  0.81352900  1
  C  811  1  0.13257000  0.81051900  0.77423800  1
  C  812  1  0.15238300  0.81772100  0.74201200  1
  C  813  1  0.16698800  0.79080000  0.72080700  1
  C  814  1  0.16274900  0.75640800  0.73138500  1
  C  815  1  0.14335800  0.75057600  0.76399600  1
  C  823  1  0.17735600  0.72861400  0.71057800  1
  C  824  1  0.08506600  0.91682100  0.86692900  1
  C  827  1  0.59420400  0.11047800  0.38172700  1
  C  828  1  0.57830600  0.14424400  0.37633900  1
  C  829  1  0.59005600  0.17074600  0.39894500  1
  C  830  1  0.61777400  0.16379100  0.42788600  1
  C  832  1  0.62058300  0.10470100  0.41163300  1
  C  833  1  0.63257200  0.18973300  0.45087400  1
  C  834  1  0.65247300  0.18254500  0.48307500  1
  C  835  1  0.66706300  0.20947800  0.50427200  1
  C  836  1  0.66271100  0.24387000  0.49371400  1
  C  837  1  0.64323400  0.24968800  0.46113100  1
  C  845  1  0.67725600  0.27168100  0.51452300  1
  C  846  1  0.58496500  0.08341800  0.35823600  1
  C  849  1  0.64614700  0.97660800  0.15047600  1
  C  850  1  0.68752900  0.98936000  0.16485100  1
  C  851  1  0.72844200  0.99060300  0.14526500  1
  C  852  1  0.72809900  0.97898700  0.11105100  1
  C  854  1  0.64743300  0.96444800  0.11663500  1
  C  855  1  0.76665100  0.98271000  0.08867490  1
  C  856  1  0.76939800  0.96583600  0.05684490  1
  C  857  1  0.80638500  0.97289300  0.03453590  1
  C  858  1  0.84099400  0.99704200  0.04314090  1
  C  859  1  0.83748100  0.01230300  0.07577790  1
  C  867  1  0.87770800  0.00592700  0.02031290  1
  C  868  1  0.60633600  0.97973200  0.16593600  1
  C  871  1  0.14601900  0.02359100  0.07473090  1
  C  872  1  0.18743300  0.01093500  0.06032290  1
  C  873  1  0.22835500  0.00970300  0.07990190  1
  C  874  1  0.22798900  0.02124400  0.11414100  1
  C  876  1  0.14727600  0.03565300  0.10861100  1
  C  877  1  0.26656300  0.01753700  0.13649900  1
  C  878  1  0.26928800  0.03436400  0.16835200  1
  C  879  1  0.30628200  0.02730200  0.19065700  1
  C  880  1  0.34092600  0.00319200  0.18201300  1
  C  881  1  0.33742800  0.98797200  0.14935800  1
  C  889  1  0.37765000  0.99429100  0.20482500  1
  C  890  1  0.10621900  0.02046700  0.05926090  1
  C  893  1  0.89604700  0.46215900  0.58903500  1
  C  894  1  0.93746100  0.44774600  0.60169000  1
  C  895  1  0.97838500  0.46732400  0.60293500  1
  C  896  1  0.97803400  0.50156200  0.59138500  1
  C  898  1  0.89732700  0.49602900  0.57695600  1
  C  899  1  0.01661600  0.52390600  0.59510300  1
  C  900  1  0.01936400  0.55575700  0.57826800  1
  C  901  1  0.05634500  0.57806400  0.58535500  1
  C  902  1  0.09095700  0.56942800  0.60949100  1
  C  903  1  0.08745000  0.53677100  0.62470900  1
  C  911  1  0.12764900  0.59225000  0.61844300  1
  C  912  1  0.85625000  0.44668900  0.59219900  1
  C  915  1  0.39611100  0.53804200  0.63609600  1
  C  916  1  0.43754800  0.55249300  0.62353200  1
  C  917  1  0.47848300  0.53292300  0.62234000  1
  C  918  1  0.47812200  0.49868300  0.63387800  1
  C  920  1  0.39738400  0.50419800  0.64824000  1
  C  921  1  0.51667700  0.47631500  0.63014400  1
  C  922  1  0.51940700  0.44446400  0.64697700  1
  C  923  1  0.55638100  0.42215000  0.63988700  1
  C  924  1  0.59100000  0.43078300  0.61575400  1
  C  925  1  0.58751100  0.46344300  0.60054400  1
  C  933  1  0.62767900  0.40795600  0.60679600  1
  C  934  1  0.35632100  0.55353000  0.63295000  1
  N  8  1  0.85581000  0.05148300  0.31948500  1
  N  15  1  0.13911600  0.91593300  0.34496100  1
  N  17  1  0.01360800  0.03582100  0.27920200  1
  N  18  1  0.04994400  0.01339900  0.38680000  1
  N  27  1  0.07819900  0.91160000  0.28853200  1
  N  29  1  0.11436700  0.96235600  0.39867200  1
  N  31  1  0.92510700  0.06327500  0.27081600  1
  N  33  1  0.87379200  0.00417900  0.37315200  1
  N  42  1  0.35582100  0.94869500  0.68069600  1
  N  49  1  0.63916900  0.08423700  0.65527400  1
  N  51  1  0.51360500  0.96440200  0.72097900  1
  N  52  1  0.54992700  0.98683400  0.61339600  1
  N  61  1  0.57820900  0.08862500  0.71167900  1
  N  63  1  0.61433700  0.03789800  0.60153700  1
  N  65  1  0.42512200  0.93688700  0.72933600  1
  N  67  1  0.37376200  0.99603100  0.62704900  1
  N  76  1  0.10573600  0.68055100  0.05157900  1
  N  83  1  0.38900500  0.65540100  0.91590200  1
  N  85  1  0.26342200  0.72100700  0.03578700  1
  N  86  1  0.29999400  0.61350600  0.01342200  1
  N  95  1  0.32793600  0.71174100  0.91153800  1
  N  97  1  0.36454700  0.60174900  0.96245500  1
  N  99  1  0.17496100  0.72922700  0.06340000  1
  N  101  1  0.12374000  0.62694200  0.00420700  1
  N  110  1  0.60572200  0.31972400  0.94866400  1
  N  117  1  0.88900400  0.34483100  0.08429900  1
  N  119  1  0.76340800  0.27922000  0.96436400  1
  N  120  1  0.79992800  0.38672300  0.98681300  1
  N  129  1  0.82797800  0.28845500  0.08865600  1
  N  131  1  0.86443200  0.39851600  0.03781600  1
  N  133  1  0.67491800  0.27105600  0.93676200  1
  N  135  1  0.62375300  0.37326400  0.99609000  1
  N  141  1  0.88105100  0.17971300  0.13083500  1
  N  148  1  0.87943900  0.17103200  0.22302500  1
  N  163  1  0.38116300  0.82044600  0.86935700  1
  N  170  1  0.37937400  0.82917400  0.77716800  1
  N  185  1  0.13146800  0.86933700  0.17987900  1
  N  192  1  0.12919500  0.77714200  0.17107900  1
  N  207  1  0.63143500  0.13090700  0.82031900  1
  N  214  1  0.62909400  0.22311000  0.82911300  1
  N  229  1  0.68744500  0.96641300  0.48610400  1
  N  236  1  0.80113100  0.00508900  0.48406300  1
  N  251  1  0.18730700  0.03373400  0.51418600  1
  N  258  1  0.30106800  0.99518600  0.51614300  1
  N  273  1  0.93736000  0.51407100  0.96640500  1
  N  280  1  0.05109300  0.51602900  0.00500800  1
  N  295  1  0.43742300  0.48616000  0.03386200  1
  N  302  1  0.55116800  0.48419800  0.99531100  1
  N  320  1  0.85581000  0.05148300  0.62572000  1
  N  327  1  0.13911600  0.91593300  0.65119600  1
  N  329  1  0.01360800  0.03582100  0.58543700  1
  N  330  1  0.04994400  0.01339900  0.69303500  1
  N  339  1  0.07819900  0.91160000  0.59476700  1
  N  341  1  0.11436700  0.96235600  0.70490700  1
  N  343  1  0.92510700  0.06327500  0.57705100  1
  N  345  1  0.87379200  0.00417900  0.67938700  1
  N  354  1  0.35582100  0.94869500  0.98693100  1
  N  361  1  0.63916900  0.08423700  0.96150900  1
  N  363  1  0.51360500  0.96440200  0.02721390  1
  N  364  1  0.54992700  0.98683400  0.91963100  1
  N  373  1  0.57820900  0.08862500  0.01791390  1
  N  375  1  0.61433700  0.03789800  0.90777200  1
  N  377  1  0.42512200  0.93688700  0.03557090  1
  N  379  1  0.37376200  0.99603100  0.93328400  1
  N  388  1  0.10573600  0.68055100  0.35781400  1
  N  395  1  0.38900500  0.65540100  0.22213700  1
  N  397  1  0.26342200  0.72100700  0.34202200  1
  N  398  1  0.29999400  0.61350600  0.31965700  1
  N  407  1  0.32793600  0.71174100  0.21777300  1
  N  409  1  0.36454700  0.60174900  0.26869000  1
  N  411  1  0.17496100  0.72922700  0.36963500  1
  N  413  1  0.12374000  0.62694200  0.31044200  1
  N  422  1  0.60572200  0.31972400  0.25489900  1
  N  429  1  0.88900400  0.34483100  0.39053400  1
  N  431  1  0.76340800  0.27922000  0.27059900  1
  N  432  1  0.79992800  0.38672300  0.29304800  1
  N  441  1  0.82797800  0.28845500  0.39489100  1
  N  443  1  0.86443200  0.39851600  0.34405100  1
  N  445  1  0.67491800  0.27105600  0.24299700  1
  N  447  1  0.62375300  0.37326400  0.30232500  1
  N  453  1  0.88105100  0.17971300  0.43707000  1
  N  460  1  0.87943900  0.17103200  0.52926000  1
  N  475  1  0.38116300  0.82044600  0.17559200  1
  N  482  1  0.37937400  0.82917400  0.08340290  1
  N  497  1  0.13146800  0.86933700  0.48611400  1
  N  504  1  0.12919500  0.77714200  0.47731400  1
  N  519  1  0.63143500  0.13090700  0.12655400  1
  N  526  1  0.62909400  0.22311000  0.13534800  1
  N  541  1  0.68744500  0.96641300  0.79233900  1
  N  548  1  0.80113100  0.00508900  0.79029800  1
  N  563  1  0.18730700  0.03373400  0.82042100  1
  N  570  1  0.30106800  0.99518600  0.82237800  1
  N  585  1  0.93736000  0.51407100  0.27264000  1
  N  592  1  0.05109300  0.51602900  0.31124300  1
  N  607  1  0.43742300  0.48616000  0.34009700  1
  N  614  1  0.55116800  0.48419800  0.30154600  1
  N  632  1  0.85581000  0.05148300  0.93195500  1
  N  639  1  0.13911600  0.91593300  0.95743100  1
  N  641  1  0.01360800  0.03582100  0.89167200  1
  N  642  1  0.04994400  0.01339900  0.99927000  1
  N  651  1  0.07819900  0.91160000  0.90100200  1
  N  653  1  0.11436700  0.96235600  0.01114190  1
  N  655  1  0.92510700  0.06327500  0.88328600  1
  N  657  1  0.87379200  0.00417900  0.98562200  1
  N  666  1  0.35582100  0.94869500  0.29316600  1
  N  673  1  0.63916900  0.08423700  0.26774400  1
  N  675  1  0.51360500  0.96440200  0.33344900  1
  N  676  1  0.54992700  0.98683400  0.22586600  1
  N  685  1  0.57820900  0.08862500  0.32414900  1
  N  687  1  0.61433700  0.03789800  0.21400700  1
  N  689  1  0.42512200  0.93688700  0.34180600  1
  N  691  1  0.37376200  0.99603100  0.23951900  1
  N  700  1  0.10573600  0.68055100  0.66404900  1
  N  707  1  0.38900500  0.65540100  0.52837200  1
  N  709  1  0.26342200  0.72100700  0.64825700  1
  N  710  1  0.29999400  0.61350600  0.62589200  1
  N  719  1  0.32793600  0.71174100  0.52400800  1
  N  721  1  0.36454700  0.60174900  0.57492500  1
  N  723  1  0.17496100  0.72922700  0.67587000  1
  N  725  1  0.12374000  0.62694200  0.61667700  1
  N  734  1  0.60572200  0.31972400  0.56113400  1
  N  741  1  0.88900400  0.34483100  0.69676900  1
  N  743  1  0.76340800  0.27922000  0.57683400  1
  N  744  1  0.79992800  0.38672300  0.59928300  1
  N  753  1  0.82797800  0.28845500  0.70112600  1
  N  755  1  0.86443200  0.39851600  0.65028600  1
  N  757  1  0.67491800  0.27105600  0.54923200  1
  N  759  1  0.62375300  0.37326400  0.60856000  1
  N  765  1  0.88105100  0.17971300  0.74330500  1
  N  772  1  0.87943900  0.17103200  0.83549500  1
  N  787  1  0.38116300  0.82044600  0.48182700  1
  N  794  1  0.37937400  0.82917400  0.38963800  1
  N  809  1  0.13146800  0.86933700  0.79234900  1
  N  816  1  0.12919500  0.77714200  0.78354900  1
  N  831  1  0.63143500  0.13090700  0.43278900  1
  N  838  1  0.62909400  0.22311000  0.44158300  1
  N  853  1  0.68744500  0.96641300  0.09857390  1
  N  860  1  0.80113100  0.00508900  0.09653290  1
  N  875  1  0.18730700  0.03373400  0.12665600  1
  N  882  1  0.30106800  0.99518600  0.12861300  1
  N  897  1  0.93736000  0.51407100  0.57887500  1
  N  904  1  0.05109300  0.51602900  0.61747800  1
  N  919  1  0.43742300  0.48616000  0.64633200  1
  N  926  1  0.55116800  0.48419800  0.60778100  1
  O  157  1  0.83820900  0.24284500  0.05091200  1
  O  158  1  0.94257600  0.11363600  0.30022700  1
  O  179  1  0.33827500  0.75731600  0.94929500  1
  O  180  1  0.44228600  0.88652900  0.69985100  1
  O  201  1  0.08858900  0.94934100  0.24293400  1
  O  202  1  0.19159500  0.69959600  0.11376100  1
  O  223  1  0.58853700  0.05089300  0.75727300  1
  O  224  1  0.69130500  0.30075600  0.88640900  1
  O  245  1  0.56558900  0.98529800  0.56405900  1
  O  246  1  0.91650600  0.02008200  0.42133800  1
  O  267  1  0.06548800  0.01489800  0.43616000  1
  O  268  1  0.41645800  0.98016800  0.57884800  1
  O  289  1  0.81552100  0.43607300  0.98533100  1
  O  290  1  0.16649500  0.57873800  0.02003400  1
  O  311  1  0.31559400  0.56415600  0.01488900  1
  O  312  1  0.66654600  0.42145600  0.98028800  1
  O  469  1  0.83820900  0.24284500  0.35714700  1
  O  470  1  0.94257600  0.11363600  0.60646200  1
  O  491  1  0.33827500  0.75731600  0.25553000  1
  O  492  1  0.44228600  0.88652900  0.00608594  1
  O  513  1  0.08858900  0.94934100  0.54916900  1
  O  514  1  0.19159500  0.69959600  0.41999600  1
  O  535  1  0.58853700  0.05089300  0.06350790  1
  O  536  1  0.69130500  0.30075600  0.19264400  1
  O  557  1  0.56558900  0.98529800  0.87029400  1
  O  558  1  0.91650600  0.02008200  0.72757300  1
  O  579  1  0.06548800  0.01489800  0.74239500  1
  O  580  1  0.41645800  0.98016800  0.88508300  1
  O  601  1  0.81552100  0.43607300  0.29156600  1
  O  602  1  0.16649500  0.57873800  0.32626900  1
  O  623  1  0.31559400  0.56415600  0.32112400  1
  O  624  1  0.66654600  0.42145600  0.28652300  1
  O  781  1  0.83820900  0.24284500  0.66338200  1
  O  782  1  0.94257600  0.11363600  0.91269700  1
  O  803  1  0.33827500  0.75731600  0.56176500  1
  O  804  1  0.44228600  0.88652900  0.31232100  1
  O  825  1  0.08858900  0.94934100  0.85540400  1
  O  826  1  0.19159500  0.69959600  0.72623100  1
  O  847  1  0.58853700  0.05089300  0.36974300  1
  O  848  1  0.69130500  0.30075600  0.49887900  1
  O  869  1  0.56558900  0.98529800  0.17652900  1
  O  870  1  0.91650600  0.02008200  0.03380790  1
  O  891  1  0.06548800  0.01489800  0.04862990  1
  O  892  1  0.41645800  0.98016800  0.19131800  1
  O  913  1  0.81552100  0.43607300  0.59780100  1
  O  914  1  0.16649500  0.57873800  0.63250400  1
  O  935  1  0.31559400  0.56415600  0.62735900  1
  O  936  1  0.66654600  0.42145600  0.59275800  1
