# generated using pymatgen
data_H18C35(N3O)2
_symmetry_space_group_name_H-M   'P 1'
_cell_length_a   42.76490000
_cell_length_b   42.76490000
_cell_length_c   42.76490000
_cell_angle_alpha   90.00000000
_cell_angle_beta   90.00000000
_cell_angle_gamma   90.00000000
_symmetry_Int_Tables_number   1
_chemical_formula_structural   H18C35(N3O)2
_chemical_formula_sum   'H432 C840 N144 O48'
_cell_volume   78210.01739484
_cell_formula_units_Z   24
loop_
 _symmetry_equiv_pos_site_id
 _symmetry_equiv_pos_as_xyz
  1  'x, y, z'
loop_
 _atom_site_type_symbol
 _atom_site_label
 _atom_site_symmetry_multiplicity
 _atom_site_fract_x
 _atom_site_fract_y
 _atom_site_fract_z
 _atom_site_occupancy
  H  25  1  0.29776800  0.95976600  0.18517200  1
  H  26  1  0.28916000  0.98941000  0.23143000  1
  H  27  1  0.28909700  0.02114500  0.27786100  1
  H  28  1  0.29761100  0.05057300  0.32430300  1
  H  29  1  0.39558400  0.04342800  0.31120600  1
  H  30  1  0.39570800  0.96652400  0.19869200  1
  H  31  1  0.38599600  0.94963400  0.29633700  1
  H  32  1  0.48452100  0.94116000  0.30548000  1
  H  33  1  0.49170900  0.98450100  0.27269600  1
  H  34  1  0.38598900  0.06014200  0.21288700  1
  H  35  1  0.49173300  0.02681800  0.23857200  1
  H  36  1  0.48452800  0.06986200  0.20536000  1
  H  62  1  0.21214700  0.05032300  0.68533100  1
  H  63  1  0.22052000  0.02036300  0.73143900  1
  H  64  1  0.22028900  0.98854900  0.77779700  1
  H  65  1  0.21158400  0.95919100  0.82418800  1
  H  66  1  0.11365100  0.96694000  0.81107600  1
  H  67  1  0.11415600  0.04413300  0.69873400  1
  H  68  1  0.12375300  0.05990200  0.79720800  1
  H  69  1  0.02526900  0.07083500  0.80362200  1
  H  70  1  0.01791400  0.02813400  0.76999400  1
  H  71  1  0.12329900  0.94972800  0.71328100  1
  H  72  1  0.01780100  0.98604200  0.73558700  1
  H  73  1  0.02478400  0.94269100  0.70282600  1
  H  99  1  0.71193400  0.45960800  0.32428500  1
  H  100  1  0.72049300  0.48912300  0.27793600  1
  H  101  1  0.72050400  0.52092500  0.23156200  1
  H  102  1  0.71197200  0.55067600  0.18535500  1
  H  103  1  0.61400800  0.54389000  0.19871000  1
  H  104  1  0.61396600  0.46660500  0.31101000  1
  H  105  1  0.62371200  0.44988800  0.21308700  1
  H  106  1  0.52519200  0.44084800  0.20450000  1
  H  107  1  0.51793600  0.48405100  0.23747300  1
  H  108  1  0.62357700  0.56022400  0.29677400  1
  H  109  1  0.51788300  0.52632400  0.27167100  1
  H  110  1  0.52502600  0.56937800  0.30486000  1
  H  136  1  0.79801700  0.55119300  0.82443100  1
  H  137  1  0.78918000  0.52185800  0.77804200  1
  H  138  1  0.78880100  0.48998800  0.73170100  1
  H  139  1  0.79706000  0.46014600  0.68546400  1
  H  140  1  0.89507500  0.46599000  0.69886800  1
  H  141  1  0.89591000  0.54293100  0.81136400  1
  H  142  1  0.88632500  0.56065800  0.71419600  1
  H  143  1  0.98481900  0.56680100  0.70297100  1
  H  144  1  0.99163600  0.52302900  0.73521000  1
  H  145  1  0.88544400  0.45011900  0.79755800  1
  H  146  1  0.99137900  0.48068900  0.76930600  1
  H  147  1  0.98385100  0.43802000  0.80297900  1
  H  173  1  0.18588900  0.29770400  0.95920300  1
  H  174  1  0.23229400  0.28924400  0.98867100  1
  H  175  1  0.27860700  0.28932100  0.02057000  1
  H  176  1  0.32482700  0.29795200  0.05027000  1
  H  177  1  0.31112200  0.39588100  0.04369900  1
  H  178  1  0.19861800  0.39570300  0.96674900  1
  H  179  1  0.29676900  0.38612300  0.94984700  1
  H  180  1  0.30516600  0.48465500  0.94074400  1
  H  181  1  0.27212700  0.49187300  0.98389800  1
  H  182  1  0.21320000  0.38618100  0.06028200  1
  H  183  1  0.23791700  0.49188900  0.02613800  1
  H  184  1  0.20487700  0.48472900  0.06929400  1
  H  210  1  0.68582200  0.21222800  0.05077600  1
  H  211  1  0.73224300  0.22061700  0.02129400  1
  H  212  1  0.77867800  0.22044900  0.98959400  1
  H  213  1  0.82494300  0.21173900  0.95998800  1
  H  214  1  0.81103900  0.11382300  0.96650300  1
  H  215  1  0.69861700  0.11422000  0.04358400  1
  H  216  1  0.79702300  0.12358700  0.06015400  1
  H  217  1  0.80451000  0.02503600  0.06974600  1
  H  218  1  0.77122400  0.01790600  0.02675300  1
  H  219  1  0.71318300  0.12374800  0.94989600  1
  H  220  1  0.73699000  0.01799600  0.98450800  1
  H  221  1  0.70401900  0.02523800  0.94132300  1
  H  247  1  0.32560100  0.71152300  0.46023000  1
  H  248  1  0.27959600  0.72060000  0.49009100  1
  H  249  1  0.23322400  0.72118500  0.52190900  1
  H  250  1  0.18657900  0.71316400  0.55118300  1
  H  251  1  0.19827400  0.61507200  0.54343200  1
  H  252  1  0.31074300  0.61372300  0.46646700  1
  H  253  1  0.21401900  0.62374300  0.44946700  1
  H  254  1  0.20229100  0.52529500  0.44344800  1
  H  255  1  0.23455200  0.51836700  0.48715700  1
  H  256  1  0.29769500  0.62424300  0.55978900  1
  H  257  1  0.26882800  0.51843700  0.52936600  1
  H  258  1  0.30275800  0.52582600  0.57187600  1
  H  284  1  0.82562100  0.79865700  0.54996000  1
  H  285  1  0.77961400  0.78951400  0.52012300  1
  H  286  1  0.73315000  0.78884600  0.48840800  1
  H  287  1  0.68651900  0.79681900  0.45909900  1
  H  288  1  0.69840200  0.89491900  0.46637100  1
  H  289  1  0.81081900  0.89645300  0.54342700  1
  H  290  1  0.71452100  0.88649300  0.56072200  1
  H  291  1  0.70213900  0.98491300  0.56602500  1
  H  292  1  0.73406000  0.99171100  0.52204700  1
  H  293  1  0.79772400  0.88565900  0.45012400  1
  H  294  1  0.76817900  0.99152800  0.47969700  1
  H  295  1  0.80209900  0.98399900  0.43718300  1
  H  321  1  0.95916500  0.18595000  0.29767400  1
  H  322  1  0.98847200  0.23244000  0.28915100  1
  H  323  1  0.02027500  0.27880600  0.28913700  1
  H  324  1  0.05003900  0.32501700  0.29770900  1
  H  325  1  0.04396600  0.31111000  0.39564500  1
  H  326  1  0.96710900  0.19854600  0.39564700  1
  H  327  1  0.94975600  0.29649600  0.38616000  1
  H  328  1  0.94161100  0.30574100  0.48470400  1
  H  329  1  0.98496400  0.27297200  0.49177500  1
  H  330  1  0.06026000  0.21295200  0.38591700  1
  H  331  1  0.02723100  0.23883100  0.49170000  1
  H  332  1  0.07021000  0.20557900  0.48444600  1
  H  358  1  0.05072900  0.68617000  0.21250400  1
  H  359  1  0.02102200  0.73249100  0.22068800  1
  H  360  1  0.98927600  0.77891700  0.22024600  1
  H  361  1  0.95967000  0.82510400  0.21132700  1
  H  362  1  0.96673000  0.81111200  0.11345800  1
  H  363  1  0.04393000  0.69878600  0.11445500  1
  H  364  1  0.05981100  0.79771000  0.12383900  1
  H  365  1  0.07171000  0.80300200  0.02540600  1
  H  366  1  0.02914000  0.76916600  0.01801400  1
  H  367  1  0.94950500  0.71405800  0.12334600  1
  H  368  1  0.98691500  0.73489500  0.01792400  1
  H  369  1  0.94326000  0.70254600  0.02488700  1
  H  395  1  0.46070700  0.32534900  0.71214300  1
  H  396  1  0.49060100  0.27928300  0.72093200  1
  H  397  1  0.52262700  0.23305700  0.72116400  1
  H  398  1  0.55182900  0.18642900  0.71286700  1
  H  399  1  0.54339200  0.19826200  0.61484500  1
  H  400  1  0.46650900  0.31081100  0.61427300  1
  H  401  1  0.44994400  0.21345600  0.62431800  1
  H  402  1  0.44125700  0.20430800  0.52581000  1
  H  403  1  0.48462900  0.23702900  0.51852600  1
  H  404  1  0.56043400  0.29697300  0.62403100  1
  H  405  1  0.52696000  0.27111700  0.51837800  1
  H  406  1  0.56996000  0.30442000  0.52547100  1
  H  432  1  0.55017300  0.82550900  0.79884700  1
  H  433  1  0.52040600  0.77943800  0.78981400  1
  H  434  1  0.48884000  0.73289100  0.78927600  1
  H  435  1  0.45937700  0.68638800  0.79734800  1
  H  436  1  0.46647100  0.69859900  0.89543500  1
  H  437  1  0.54367000  0.81092700  0.89666300  1
  H  438  1  0.56054200  0.71386400  0.88673200  1
  H  439  1  0.56698800  0.70285900  0.98523300  1
  H  440  1  0.52343200  0.73534800  0.99212900  1
  H  441  1  0.45023100  0.79753000  0.88607000  1
  H  442  1  0.48121500  0.76964300  0.99197200  1
  H  443  1  0.43854900  0.80334300  0.98449900  1
  H  469  1  0.70604400  0.52607600  0.07079100  1
  H  470  1  0.73954100  0.51858400  0.02801900  1
  H  471  1  0.77379100  0.51831500  0.98586900  1
  H  472  1  0.80649300  0.52510100  0.94246200  1
  H  473  1  0.79654100  0.62367500  0.94942800  1
  H  474  1  0.71275700  0.62453300  0.05977600  1
  H  475  1  0.69874600  0.61428000  0.96674400  1
  H  476  1  0.68558800  0.71221300  0.95904100  1
  H  477  1  0.73198400  0.72091800  0.98843000  1
  H  478  1  0.81136200  0.61479200  0.04354000  1
  H  479  1  0.77819000  0.72115000  0.02043900  1
  H  480  1  0.82445700  0.71279000  0.05018600  1
  H  506  1  0.80570100  0.48455600  0.56857400  1
  H  507  1  0.77306200  0.49178000  0.52511500  1
  H  508  1  0.73897100  0.49183100  0.48274600  1
  H  509  1  0.70569100  0.48463800  0.43974200  1
  H  510  1  0.71298900  0.38609900  0.44961200  1
  H  511  1  0.79634000  0.38604600  0.56017700  1
  H  512  1  0.81142700  0.39555800  0.46632400  1
  H  513  1  0.82422000  0.29755700  0.45904200  1
  H  514  1  0.77773400  0.28914400  0.48842900  1
  H  515  1  0.69896600  0.39591600  0.54333100  1
  H  516  1  0.73132400  0.28929300  0.52019500  1
  H  517  1  0.68510600  0.29799700  0.54988100  1
  H  543  1  0.20484900  0.98536900  0.94062400  1
  H  544  1  0.23795700  0.99247500  0.98374600  1
  H  545  1  0.27218800  0.99237500  0.02603300  1
  H  546  1  0.30522200  0.98504600  0.06918900  1
  H  547  1  0.29669400  0.88654000  0.05993800  1
  H  548  1  0.21307100  0.88681100  0.94960400  1
  H  549  1  0.19880700  0.89645500  0.04341600  1
  H  550  1  0.18515000  0.79851500  0.05004100  1
  H  551  1  0.23142000  0.78988400  0.02042300  1
  H  552  1  0.31119700  0.89630100  0.96631600  1
  H  553  1  0.27794800  0.78982100  0.98881800  1
  H  554  1  0.32434500  0.79831400  0.95935700  1
  H  580  1  0.30644300  0.02514900  0.44213400  1
  H  581  1  0.27376900  0.01821300  0.48557300  1
  H  582  1  0.23959400  0.01839400  0.52784900  1
  H  583  1  0.20618700  0.02583600  0.57071800  1
  H  584  1  0.21298800  0.12430800  0.55989600  1
  H  585  1  0.29656800  0.12370100  0.44949700  1
  H  586  1  0.31134200  0.11465800  0.54378200  1
  H  587  1  0.32444600  0.21266700  0.55032800  1
  H  588  1  0.27825200  0.22099700  0.52048800  1
  H  589  1  0.19903000  0.11407900  0.46653000  1
  H  590  1  0.23185800  0.22074600  0.48869800  1
  H  591  1  0.18554900  0.21198600  0.45919400  1
  H  617  1  0.02563000  0.44082400  0.30519000  1
  H  618  1  0.01844600  0.48401800  0.27220000  1
  H  619  1  0.01844000  0.52635900  0.23812500  1
  H  620  1  0.02563900  0.56957200  0.20515300  1
  H  621  1  0.12417700  0.56041300  0.21342200  1
  H  622  1  0.12417300  0.44989200  0.29687200  1
  H  623  1  0.11467800  0.54350700  0.31147700  1
  H  624  1  0.21266700  0.55093800  0.32422400  1
  H  625  1  0.22110300  0.52143900  0.27782600  1
  H  626  1  0.11439100  0.46651800  0.19900900  1
  H  627  1  0.22099200  0.48956300  0.23148100  1
  H  628  1  0.21231300  0.45991200  0.18522900  1
  H  654  1  0.98470500  0.93845700  0.20674300  1
  H  655  1  0.99219500  0.98102900  0.24054100  1
  H  656  1  0.99240300  0.02320000  0.27489100  1
  H  657  1  0.98554400  0.06677200  0.30737400  1
  H  658  1  0.88706400  0.06067000  0.29599500  1
  H  659  1  0.88629000  0.95043100  0.21222500  1
  H  660  1  0.89656900  0.04319000  0.19854300  1
  H  661  1  0.79862500  0.05113600  0.18557100  1
  H  662  1  0.78992600  0.02188200  0.23203400  1
  H  663  1  0.89605500  0.96596300  0.31085800  1
  H  664  1  0.78969000  0.99024900  0.27852500  1
  H  665  1  0.79808400  0.96024800  0.32461000  1
  H  691  1  0.48484900  0.56844100  0.80593900  1
  H  692  1  0.49201100  0.52496300  0.77331400  1
  H  693  1  0.49200400  0.48257800  0.73918800  1
  H  694  1  0.48470600  0.43963200  0.70582000  1
  H  695  1  0.38620000  0.44992500  0.71287000  1
  H  696  1  0.38633300  0.56041100  0.79626100  1
  H  697  1  0.39569600  0.46650900  0.81135900  1
  H  698  1  0.29767400  0.45922500  0.82401200  1
  H  699  1  0.28932800  0.48864400  0.77754200  1
  H  700  1  0.39623400  0.54356500  0.69894700  1
  H  701  1  0.28956000  0.52025600  0.73101500  1
  H  702  1  0.29834500  0.54990000  0.68478400  1
  H  728  1  0.52530500  0.06459800  0.70073100  1
  H  729  1  0.51871800  0.02056600  0.73252800  1
  H  730  1  0.51894000  0.97851300  0.76692600  1
  H  731  1  0.52646000  0.93639700  0.80132800  1
  H  732  1  0.62468100  0.95057200  0.79844500  1
  H  733  1  0.62358200  0.06093400  0.71476100  1
  H  734  1  0.61536900  0.96609400  0.69868300  1
  H  735  1  0.71343100  0.95959100  0.68614200  1
  H  736  1  0.72148400  0.98917300  0.73258000  1
  H  737  1  0.61398000  0.04307900  0.81116800  1
  H  738  1  0.72086500  0.02113700  0.77883300  1
  H  739  1  0.71184100  0.05072400  0.82501500  1
  H  765  1  0.93922800  0.20607300  0.98475600  1
  H  766  1  0.98202000  0.23959800  0.99213900  1
  H  767  1  0.02426700  0.27385500  0.99225300  1
  H  768  1  0.06771900  0.30650400  0.98524000  1
  H  769  1  0.06041800  0.29629700  0.88672300  1
  H  770  1  0.95009000  0.21264200  0.88627600  1
  H  771  1  0.04327200  0.19872200  0.89635700  1
  H  772  1  0.05068800  0.18547200  0.79841200  1
  H  773  1  0.02124900  0.23183300  0.78974400  1
  H  774  1  0.96601400  0.31103300  0.89596400  1
  H  775  1  0.98962000  0.27832900  0.78956300  1
  H  776  1  0.95975000  0.32449500  0.79798900  1
  H  802  1  0.44034700  0.30469900  0.02525100  1
  H  803  1  0.48348300  0.27161800  0.01805800  1
  H  804  1  0.52581900  0.23751000  0.01807300  1
  H  805  1  0.56906500  0.20459600  0.02527700  1
  H  806  1  0.56027700  0.21336900  0.12380700  1
  H  807  1  0.44982500  0.29688400  0.12379500  1
  H  808  1  0.54342200  0.31128800  0.11416200  1
  H  809  1  0.55049600  0.32444800  0.21213500  1
  H  810  1  0.52100400  0.27806500  0.22066300  1
  H  811  1  0.46637800  0.19885800  0.11410800  1
  H  812  1  0.48925600  0.23164000  0.22064900  1
  H  813  1  0.45967600  0.18531900  0.21205700  1
  H  839  1  0.06518100  0.70150100  0.52514100  1
  H  840  1  0.02114800  0.73335400  0.51854000  1
  H  841  1  0.97894800  0.76761600  0.51885500  1
  H  842  1  0.93673100  0.80187700  0.52645700  1
  H  843  1  0.95049700  0.79827900  0.62471800  1
  H  844  1  0.06088300  0.71469400  0.62350200  1
  H  845  1  0.96595300  0.69881100  0.61516800  1
  H  846  1  0.96011500  0.68562500  0.71320200  1
  H  847  1  0.98983300  0.73196200  0.72136000  1
  H  848  1  0.04274100  0.81139400  0.61400400  1
  H  849  1  0.02185600  0.77820100  0.72083200  1
  H  850  1  0.05115400  0.82459500  0.71188500  1
  H  876  1  0.56683900  0.80704700  0.48487000  1
  H  877  1  0.52307900  0.77481300  0.49177300  1
  H  878  1  0.48080600  0.74061400  0.49162100  1
  H  879  1  0.43823800  0.70678500  0.48418900  1
  H  880  1  0.45015000  0.71217100  0.38576500  1
  H  881  1  0.56057200  0.79570600  0.38639400  1
  H  882  1  0.46603200  0.81112100  0.39532000  1
  H  883  1  0.45956600  0.82417400  0.29730200  1
  H  884  1  0.48931500  0.77790200  0.28901700  1
  H  885  1  0.54310400  0.69869900  0.39605100  1
  H  886  1  0.52111900  0.73153200  0.28934200  1
  H  887  1  0.55059400  0.68522100  0.29815100  1
  H  895  1  0.39411300  0.88965000  0.30459100  1
  H  899  1  0.48309000  0.86138200  0.41330600  1
  H  900  1  0.52126400  0.86803700  0.40887300  1
  H  907  1  0.11576800  0.12070200  0.80545500  1
  H  911  1  0.02708600  0.14819500  0.91414900  1
  H  912  1  0.98893000  0.14117000  0.91018800  1
  H  919  1  0.61566400  0.38972600  0.20476000  1
  H  923  1  0.52657700  0.36156100  0.09612000  1
  H  924  1  0.48841900  0.36832800  0.10052400  1
  H  931  1  0.89471500  0.61995900  0.70568200  1
  H  935  1  0.98353800  0.64879100  0.59715100  1
  H  936  1  0.02173200  0.64216000  0.60142600  1
  H  943  1  0.30502800  0.39420200  0.88966700  1
  H  947  1  0.41356300  0.48348500  0.86166700  1
  H  948  1  0.40899200  0.52164300  0.86832700  1
  H  955  1  0.80585300  0.11574800  0.12039300  1
  H  959  1  0.91413500  0.02665400  0.14805100  1
  H  960  1  0.90999400  0.98847700  0.14125000  1
  H  967  1  0.20474500  0.61579200  0.39040200  1
  H  971  1  0.09691200  0.52579100  0.36162600  1
  H  972  1  0.10185300  0.48762200  0.36794700  1
  H  979  1  0.70565100  0.89469900  0.61969100  1
  H  983  1  0.59756300  0.98411300  0.64868200  1
  H  984  1  0.60225600  0.02232200  0.64241700  1
  H  991  1  0.89001300  0.30519200  0.39407600  1
  H  995  1  0.86161100  0.41331600  0.48376100  1
  H  996  1  0.86810900  0.40860400  0.52192800  1
  H  1003  1  0.12104800  0.80538000  0.11566300  1
  H  1007  1  0.14836000  0.91440900  0.02724900  1
  H  1008  1  0.14107600  0.91061800  0.98912700  1
  H  1015  1  0.38965100  0.20556700  0.61589500  1
  H  1019  1  0.36172000  0.09635300  0.52739500  1
  H  1020  1  0.36859700  0.10059000  0.48923800  1
  H  1027  1  0.61963700  0.70428300  0.89451600  1
  H  1031  1  0.64852300  0.59671400  0.98425800  1
  H  1032  1  0.64210600  0.60129500  0.02245300  1
  H  1039  1  0.61601500  0.11902100  0.70422900  1
  H  1043  1  0.52431800  0.14828900  0.59791100  1
  H  1044  1  0.48618400  0.14250200  0.60369600  1
  H  1051  1  0.89423800  0.88926000  0.20428300  1
  H  1055  1  0.98270600  0.86163000  0.09548700  1
  H  1056  1  0.02083800  0.86887600  0.09924600  1
  H  1063  1  0.39451800  0.62029400  0.80450800  1
  H  1067  1  0.48331500  0.64825400  0.91343100  1
  H  1068  1  0.52151200  0.64173900  0.90897200  1
  H  1075  1  0.11574000  0.38950400  0.30486500  1
  H  1079  1  0.02736700  0.36133800  0.41385600  1
  H  1080  1  0.98922700  0.36848900  0.40997600  1
  H  1087  1  0.70492200  0.61637900  0.12073300  1
  H  1091  1  0.59594400  0.52751900  0.14828800  1
  H  1092  1  0.60018200  0.48940400  0.14119200  1
  H  1099  1  0.20413300  0.89456800  0.88966000  1
  H  1103  1  0.09608800  0.98380700  0.86149600  1
  H  1104  1  0.10035800  0.02200100  0.86812800  1
  H  1111  1  0.80419000  0.39440500  0.62030100  1
  H  1115  1  0.91341500  0.48273200  0.64865800  1
  H  1116  1  0.90930200  0.52089900  0.64177200  1
  H  1123  1  0.30526000  0.11548800  0.38985000  1
  H  1127  1  0.41344700  0.02619300  0.36138500  1
  H  1128  1  0.40903600  0.98802500  0.36807300  1
  H  1135  1  0.11932000  0.70494300  0.61562600  1
  H  1139  1  0.14828000  0.59786700  0.52473600  1
  H  1140  1  0.14234400  0.60333100  0.48657700  1
  H  1147  1  0.88918700  0.20477500  0.89448400  1
  H  1151  1  0.86141000  0.09569200  0.98269400  1
  H  1152  1  0.86867300  0.09940200  0.02082800  1
  H  1159  1  0.61976300  0.80449600  0.39446600  1
  H  1163  1  0.64828400  0.91265300  0.48419900  1
  H  1164  1  0.64212200  0.90769800  0.52239600  1
  H  1171  1  0.38949500  0.30520100  0.11574000  1
  H  1175  1  0.36143900  0.41382800  0.02700100  1
  H  1176  1  0.36838200  0.40982200  0.98883700  1
  H  1183  1  0.89366100  0.38873000  0.80489800  1
  H  1187  1  0.98252100  0.36140600  0.91398800  1
  H  1188  1  0.02061700  0.36860100  0.90976700  1
  H  1195  1  0.61558900  0.62036600  0.30552600  1
  H  1199  1  0.52663300  0.64828400  0.41394200  1
  H  1200  1  0.48846800  0.64137400  0.40986900  1
  H  1207  1  0.11562200  0.89051500  0.70368500  1
  H  1211  1  0.02518500  0.86162000  0.59640300  1
  H  1212  1  0.98703900  0.86802300  0.60140400  1
  H  1219  1  0.39431400  0.12068400  0.20493900  1
  H  1223  1  0.48267900  0.14851200  0.09594300  1
  H  1224  1  0.52082900  0.14140400  0.09980500  1
  H  1231  1  0.80480300  0.89381700  0.38849400  1
  H  1235  1  0.91403700  0.98235700  0.36126100  1
  H  1236  1  0.91006000  0.02044900  0.36861800  1
  H  1243  1  0.30519000  0.61587400  0.62124600  1
  H  1247  1  0.41434500  0.52763600  0.64853400  1
  H  1248  1  0.41075000  0.48956300  0.64091800  1
  H  1255  1  0.70424300  0.11582800  0.88992600  1
  H  1259  1  0.59596100  0.02654900  0.86155700  1
  H  1260  1  0.60030300  0.98841300  0.86847900  1
  H  1267  1  0.20500400  0.39447500  0.12057500  1
  H  1271  1  0.09623200  0.48306400  0.14873400  1
  H  1272  1  0.10019000  0.52121300  0.14166600  1
  H  1279  1  0.38920000  0.80535000  0.89397600  1
  H  1283  1  0.36157500  0.91409300  0.98297000  1
  H  1284  1  0.36855900  0.90981900  0.02110100  1
  H  1291  1  0.62095800  0.30506300  0.61556800  1
  H  1295  1  0.64857600  0.41405900  0.52721000  1
  H  1296  1  0.64125300  0.41031300  0.48909000  1
  H  1303  1  0.89039600  0.70491700  0.11540000  1
  H  1307  1  0.86138200  0.59706200  0.02541900  1
  H  1308  1  0.86772100  0.60201900  0.98725600  1
  H  1315  1  0.12080000  0.20467900  0.39403100  1
  H  1319  1  0.14861500  0.09605700  0.48283500  1
  H  1320  1  0.14159700  0.10007800  0.52098800  1
  H  1327  1  0.11610500  0.62062100  0.20526300  1
  H  1331  1  0.02685000  0.64845900  0.09663800  1
  H  1332  1  0.98868700  0.64182800  0.10120500  1
  H  1339  1  0.39465300  0.38910700  0.70520900  1
  H  1343  1  0.48235100  0.36117900  0.59581600  1
  H  1344  1  0.52046700  0.36868300  0.59922300  1
  H  1351  1  0.89468700  0.11951900  0.30578600  1
  H  1355  1  0.98533600  0.14844300  0.41296700  1
  H  1356  1  0.02350400  0.14233000  0.40776200  1
  H  1363  1  0.61650800  0.88842500  0.80576800  1
  H  1367  1  0.52769200  0.86141900  0.91450200  1
  H  1368  1  0.48966800  0.86920800  0.91079600  1
  H  1375  1  0.20521400  0.11622700  0.62070500  1
  H  1379  1  0.09610300  0.02759400  0.64835000  1
  H  1380  1  0.10025300  0.98945200  0.64135100  1
  H  1387  1  0.70490800  0.39435600  0.38905500  1
  H  1391  1  0.59594700  0.48271400  0.36147900  1
  H  1392  1  0.59977900  0.52086900  0.36857600  1
  H  1399  1  0.30510500  0.89445600  0.12008800  1
  H  1403  1  0.41374400  0.98344900  0.14843600  1
  H  1404  1  0.40940100  0.02161600  0.14167900  1
  H  1411  1  0.80604400  0.61577600  0.89009700  1
  H  1415  1  0.91336400  0.52554800  0.86166200  1
  H  1416  1  0.90863300  0.48738800  0.86817500  1
  H  1423  1  0.62030300  0.20485100  0.11584600  1
  H  1427  1  0.64835000  0.09637400  0.02648200  1
  H  1428  1  0.64171600  0.10094600  0.98832000  1
  H  1435  1  0.38879100  0.70452900  0.39408000  1
  H  1439  1  0.36115600  0.59544900  0.48227600  1
  H  1440  1  0.36883100  0.59895900  0.52034700  1
  H  1447  1  0.11978100  0.30542800  0.89449800  1
  H  1451  1  0.14837000  0.41332300  0.98429300  1
  H  1452  1  0.14203300  0.40852700  0.02247800  1
  H  1459  1  0.88836600  0.80554200  0.61636500  1
  H  1463  1  0.86139100  0.91464000  0.52803100  1
  H  1464  1  0.86934600  0.91114900  0.49001900  1
  C  1  1  0.41263800  0.02702300  0.23840100  1
  C  2  1  0.44330500  0.01805900  0.24532300  1
  C  3  1  0.44329300  0.99266000  0.26516400  1
  C  4  1  0.41263300  0.98327600  0.27152900  1
  C  5  1  0.40824600  0.95686900  0.29151700  1
  C  6  1  0.43436100  0.94091400  0.30524300  1
  C  7  1  0.46474600  0.95203300  0.29753100  1
  C  8  1  0.46943600  0.97752100  0.27776500  1
  C  9  1  0.46946200  0.03349400  0.23311000  1
  C  10  1  0.46477400  0.05878200  0.21308600  1
  C  11  1  0.43438200  0.06938600  0.20472900  1
  C  12  1  0.40824100  0.05324000  0.21816700  1
  C  13  1  0.36816400  0.98901700  0.23299100  1
  C  14  1  0.33731900  0.99556200  0.24175900  1
  C  15  1  0.33727900  0.01477700  0.26777100  1
  C  16  1  0.36810300  0.02119300  0.27669000  1
  C  17  1  0.31147000  0.02641000  0.28438300  1
  C  18  1  0.31676200  0.04398100  0.31151000  1
  C  19  1  0.34747900  0.05052000  0.32223200  1
  C  20  1  0.37318500  0.03927500  0.30412100  1
  C  21  1  0.37329400  0.97078700  0.20566200  1
  C  22  1  0.34763100  0.95952500  0.18749500  1
  C  23  1  0.31689300  0.96631400  0.19802600  1
  C  24  1  0.31154300  0.98399600  0.22506400  1
  C  37  1  0.39043200  0.00509300  0.25488200  1
  C  38  1  0.09681400  0.98365700  0.73783600  1
  C  39  1  0.06621300  0.99345700  0.74383400  1
  C  40  1  0.06630400  0.01877400  0.76378800  1
  C  41  1  0.09700000  0.02729900  0.77113500  1
  C  42  1  0.10148300  0.05331500  0.79161400  1
  C  43  1  0.07538700  0.06965800  0.80491000  1
  C  44  1  0.04497000  0.05954900  0.79605700  1
  C  45  1  0.04020300  0.03448400  0.77576900  1
  C  46  1  0.04003700  0.97874200  0.73081400  1
  C  47  1  0.04462600  0.95323000  0.71104800  1
  C  48  1  0.07493600  0.94160400  0.70377600  1
  C  49  1  0.10108500  0.95723800  0.71783200  1
  C  50  1  0.14153100  0.02123200  0.73290500  1
  C  51  1  0.17231000  0.01441200  0.74166200  1
  C  52  1  0.17215300  0.99514600  0.76763200  1
  C  53  1  0.14127200  0.98892800  0.77652000  1
  C  54  1  0.19788000  0.98334600  0.78424100  1
  C  55  1  0.19246200  0.96581800  0.81136600  1
  C  56  1  0.16170200  0.95942900  0.82207600  1
  C  57  1  0.13607700  0.97089200  0.80397200  1
  C  58  1  0.13653600  0.03965000  0.70567900  1
  C  59  1  0.16228200  0.05084000  0.68759900  1
  C  60  1  0.19296500  0.04378300  0.69810500  1
  C  61  1  0.19817500  0.02587100  0.72502500  1
  C  74  1  0.11910400  0.00523500  0.75468400  1
  C  75  1  0.59697300  0.52699500  0.27136500  1
  C  76  1  0.56631700  0.51786200  0.26461400  1
  C  77  1  0.56634500  0.49247400  0.24475200  1
  C  78  1  0.59702000  0.48327300  0.23819300  1
  C  79  1  0.60144900  0.45695900  0.21809000  1
  C  80  1  0.57534800  0.44089700  0.20446000  1
  C  81  1  0.54494500  0.45180500  0.21239000  1
  C  82  1  0.54021900  0.47720000  0.23227500  1
  C  83  1  0.54014900  0.53313600  0.27699800  1
  C  84  1  0.54480700  0.55843700  0.29701200  1
  C  85  1  0.57518000  0.56923600  0.30519900  1
  C  86  1  0.60133200  0.55322000  0.29160600  1
  C  87  1  0.64148400  0.48906000  0.27666900  1
  C  88  1  0.67231800  0.49546700  0.26777600  1
  C  89  1  0.67232700  0.51466700  0.24175400  1
  C  90  1  0.64150000  0.52121300  0.23293500  1
  C  91  1  0.69812900  0.52624200  0.22509900  1
  C  92  1  0.69282100  0.54401900  0.19811200  1
  C  93  1  0.66210400  0.55082300  0.18754200  1
  C  94  1  0.63641200  0.53952400  0.20564900  1
  C  95  1  0.63637500  0.47083500  0.30400900  1
  C  96  1  0.66206200  0.45957600  0.32214500  1
  C  97  1  0.69278600  0.46621900  0.31149800  1
  C  98  1  0.69810800  0.48387100  0.28443400  1
  C  111  1  0.61919500  0.50514100  0.25480000  1
  C  112  1  0.91231100  0.48242600  0.77122800  1
  C  113  1  0.94303500  0.49061500  0.76360500  1
  C  114  1  0.94321500  0.51602100  0.74377800  1
  C  115  1  0.91266400  0.52617500  0.73811700  1
  C  116  1  0.90849500  0.55285100  0.71845100  1
  C  117  1  0.93469200  0.56837700  0.70438400  1
  C  118  1  0.96494300  0.55634400  0.71121700  1
  C  119  1  0.96943500  0.53057800  0.73066700  1
  C  120  1  0.96907800  0.47458300  0.77528800  1
  C  121  1  0.96422300  0.44955100  0.79559200  1
  C  122  1  0.93377300  0.43983700  0.80476100  1
  C  123  1  0.90772800  0.45645400  0.79172900  1
  C  124  1  0.86819600  0.52104200  0.77682400  1
  C  125  1  0.83728300  0.51498100  0.76792000  1
  C  126  1  0.83703200  0.49573600  0.74193100  1
  C  127  1  0.86778400  0.48883800  0.73314100  1
  C  128  1  0.81112100  0.48440400  0.72526800  1
  C  129  1  0.81625800  0.46658600  0.69826700  1
  C  130  1  0.84691700  0.45953800  0.68770700  1
  C  131  1  0.87271100  0.47052400  0.70583400  1
  C  132  1  0.87346600  0.53907300  0.80425800  1
  C  133  1  0.84789400  0.55069700  0.82233600  1
  C  134  1  0.81710500  0.54448200  0.81160500  1
  C  135  1  0.81161200  0.52694200  0.78450300  1
  C  148  1  0.89028900  0.50468700  0.75494400  1
  C  149  1  0.23841000  0.41279700  0.02691200  1
  C  150  1  0.24506300  0.44345700  0.01772100  1
  C  151  1  0.26493500  0.44345200  0.99234700  1
  C  152  1  0.27157300  0.41278500  0.98318300  1
  C  153  1  0.29172500  0.40837900  0.95690400  1
  C  154  1  0.30533000  0.43449700  0.94085100  1
  C  155  1  0.29733000  0.46489300  0.95172700  1
  C  156  1  0.27738200  0.46959500  0.97707500  1
  C  157  1  0.23264500  0.46962100  0.03297700  1
  C  158  1  0.21270200  0.46495100  0.05833000  1
  C  159  1  0.20464500  0.43457100  0.06920800  1
  C  160  1  0.21826100  0.40842800  0.05320100  1
  C  161  1  0.23320500  0.36826000  0.98893000  1
  C  162  1  0.24220300  0.33743800  0.99525600  1
  C  163  1  0.26820100  0.33747300  0.01448600  1
  C  164  1  0.27688100  0.36831800  0.02114400  1
  C  165  1  0.28495800  0.31170700  0.02598700  1
  C  166  1  0.31192600  0.31706600  0.04377700  1
  C  167  1  0.32238100  0.34781300  0.05064100  1
  C  168  1  0.30419100  0.37346300  0.03939600  1
  C  169  1  0.20577800  0.37331300  0.97082900  1
  C  170  1  0.18778000  0.34758900  0.95944800  1
  C  171  1  0.19859700  0.31688400  0.96588300  1
  C  172  1  0.22569200  0.31161800  0.98351000  1
  C  185  1  0.25500100  0.39058900  0.00505800  1
  C  186  1  0.73819200  0.09706900  0.98336000  1
  C  187  1  0.74458300  0.06639600  0.99269300  1
  C  188  1  0.76446300  0.06634400  0.01807000  1
  C  189  1  0.77141100  0.09699400  0.02707100  1
  C  190  1  0.79170100  0.10134300  0.05325900  1
  C  191  1  0.80515800  0.07518200  0.06936900  1
  C  192  1  0.79677300  0.04481300  0.05871700  1
  C  193  1  0.77669800  0.04016800  0.03345700  1
  C  194  1  0.73192500  0.04027800  0.97755600  1
  C  195  1  0.71204200  0.04500400  0.95215900  1
  C  196  1  0.70426700  0.07539600  0.94110800  1
  C  197  1  0.71807300  0.10148800  0.95704900  1
  C  198  1  0.73317100  0.14160600  0.02128700  1
  C  199  1  0.74218600  0.17240800  0.01489300  1
  C  200  1  0.76820700  0.17231100  0.99569500  1
  C  201  1  0.77688300  0.14144800  0.98911000  1
  C  202  1  0.78502200  0.19805100  0.98421800  1
  C  203  1  0.81204000  0.19264100  0.96652600  1
  C  204  1  0.82246000  0.16188000  0.95968400  1
  C  205  1  0.80418800  0.13625400  0.97085900  1
  C  206  1  0.70576300  0.13659900  0.03943200  1
  C  207  1  0.68772500  0.16235400  0.05068700  1
  C  208  1  0.69854300  0.19303900  0.04415600  1
  C  209  1  0.72565400  0.19825900  0.02654000  1
  C  222  1  0.75492100  0.11922800  0.00516900  1
  C  223  1  0.27106800  0.59748300  0.52763100  1
  C  224  1  0.26327000  0.56680400  0.51946800  1
  C  225  1  0.24338700  0.56674300  0.49410200  1
  C  226  1  0.23786600  0.59732400  0.48393700  1
  C  227  1  0.21817600  0.60155600  0.45727700  1
  C  228  1  0.20395300  0.57541800  0.44177100  1
  C  229  1  0.21066200  0.54515000  0.45384000  1
  C  230  1  0.23012800  0.54058100  0.47958000  1
  C  231  1  0.27491900  0.54071500  0.53545600  1
  C  232  1  0.29539200  0.54548000  0.56037300  1
  C  233  1  0.30473100  0.57589100  0.57004200  1
  C  234  1  0.29171100  0.60198700  0.55350500  1
  C  235  1  0.27692800  0.64161500  0.48926100  1
  C  236  1  0.26862000  0.67255600  0.49601000  1
  C  237  1  0.24262400  0.67290200  0.51524300  1
  C  238  1  0.23327000  0.64218300  0.52149100  1
  C  239  1  0.22637700  0.69887900  0.52703700  1
  C  240  1  0.19915000  0.69388000  0.54455400  1
  C  241  1  0.18791600  0.66328500  0.55075100  1
  C  242  1  0.20572600  0.63739000  0.53947500  1
  C  243  1  0.30411900  0.63620600  0.47089600  1
  C  244  1  0.32256800  0.66168800  0.45966900  1
  C  245  1  0.31253000  0.69252800  0.46673600  1
  C  246  1  0.28563600  0.69816100  0.48454000  1
  C  259  1  0.25484200  0.61959900  0.50543300  1
  C  260  1  0.77098700  0.91251700  0.48210800  1
  C  261  1  0.76299500  0.94321100  0.49002600  1
  C  262  1  0.74320300  0.94334100  0.51545800  1
  C  263  1  0.73796300  0.91280900  0.52590600  1
  C  264  1  0.71847200  0.90864700  0.55271300  1
  C  265  1  0.70421300  0.93481600  0.56812500  1
  C  266  1  0.71059700  0.96503200  0.55575000  1
  C  267  1  0.72983700  0.96952900  0.52983200  1
  C  268  1  0.77442000  0.96924400  0.47378800  1
  C  269  1  0.79487200  0.96440300  0.44887000  1
  C  270  1  0.80445000  0.93397400  0.43950100  1
  C  271  1  0.79161700  0.90792900  0.45624800  1
  C  272  1  0.77703700  0.86850700  0.52064400  1
  C  273  1  0.76868700  0.83754900  0.51402200  1
  C  274  1  0.74262100  0.83714200  0.49488500  1
  C  275  1  0.73326500  0.86784300  0.48856000  1
  C  276  1  0.72630600  0.81114400  0.48324000  1
  C  277  1  0.69907800  0.81611600  0.46571600  1
  C  278  1  0.68794000  0.84670100  0.45926700  1
  C  279  1  0.70577700  0.87260400  0.47048200  1
  C  280  1  0.80423200  0.87396000  0.53899300  1
  C  281  1  0.82264200  0.84850200  0.55034200  1
  C  282  1  0.81259900  0.81764500  0.54333800  1
  C  283  1  0.78573300  0.81197200  0.52550800  1
  C  296  1  0.75490200  0.89046900  0.50446300  1
  C  297  1  0.02722500  0.23854600  0.41259800  1
  C  298  1  0.01835000  0.24551400  0.44328400  1
  C  299  1  0.99295900  0.26536700  0.44334300  1
  C  300  1  0.98347700  0.27170600  0.41271200  1
  C  301  1  0.95705400  0.29169500  0.40839300  1
  C  302  1  0.94116400  0.30544400  0.43454300  1
  C  303  1  0.95240500  0.29777000  0.46489300  1
  C  304  1  0.97791000  0.27800800  0.46952100  1
  C  305  1  0.03384300  0.23333300  0.46941800  1
  C  306  1  0.05909800  0.21327800  0.46470100  1
  C  307  1  0.06962000  0.20484700  0.43430000  1
  C  308  1  0.05341900  0.21827600  0.40817600  1
  C  309  1  0.98903100  0.23326600  0.36817100  1
  C  310  1  0.99517600  0.24233400  0.33733000  1
  C  311  1  0.01441400  0.26832800  0.33730200  1
  C  312  1  0.02122400  0.27695400  0.36812700  1
  C  313  1  0.02580900  0.28511900  0.31150500  1
  C  314  1  0.04358000  0.31210900  0.31682800  1
  C  315  1  0.05057200  0.32251000  0.34755800  1
  C  316  1  0.03950100  0.30425400  0.37323400  1
  C  317  1  0.97100700  0.20579200  0.37325200  1
  C  318  1  0.95956700  0.18778600  0.34754900  1
  C  319  1  0.96584800  0.19867900  0.31683700  1
  C  320  1  0.98333500  0.22585600  0.31153600  1
  C  333  1  0.00523800  0.25505700  0.39045100  1
  C  334  1  0.98385400  0.73803500  0.09688800  1
  C  335  1  0.99395500  0.74363100  0.06630600  1
  C  336  1  0.01931100  0.76352600  0.06638200  1
  C  337  1  0.02753800  0.77123800  0.09706900  1
  C  338  1  0.05345200  0.79182900  0.10157500  1
  C  339  1  0.06996300  0.80488900  0.07548100  1
  C  340  1  0.06023400  0.79561800  0.04506800  1
  C  341  1  0.03526700  0.77521100  0.04029300  1
  C  342  1  0.97939700  0.73040300  0.04014600  1
  C  343  1  0.95369100  0.71089400  0.04473100  1
  C  344  1  0.94171600  0.70409900  0.07501600  1
  C  345  1  0.95725200  0.71828300  0.10115000  1
  C  346  1  0.02136100  0.73328400  0.14169200  1
  C  347  1  0.01478300  0.74233100  0.17243500  1
  C  348  1  0.99555500  0.76833100  0.17216000  1
  C  349  1  0.98911000  0.77693900  0.14124100  1
  C  350  1  0.98391900  0.78515800  0.19781500  1
  C  351  1  0.96624800  0.81215900  0.19227000  1
  C  352  1  0.95952100  0.82253000  0.16146100  1
  C  353  1  0.97092000  0.80426500  0.13592100  1
  C  354  1  0.03963400  0.70594300  0.13680500  1
  C  355  1  0.05089700  0.68801800  0.16262400  1
  C  356  1  0.04412600  0.69882600  0.19326300  1
  C  357  1  0.02636300  0.72586900  0.19836300  1
  C  370  1  0.00536500  0.75496300  0.11917400  1
  C  371  1  0.52733700  0.27133500  0.59747100  1
  C  372  1  0.51831800  0.26437600  0.56683200  1
  C  373  1  0.49290200  0.24455800  0.56692500  1
  C  374  1  0.48356700  0.23823000  0.59761400  1
  C  375  1  0.45713700  0.21827900  0.60205500  1
  C  376  1  0.44110700  0.20457300  0.57596800  1
  C  377  1  0.45217900  0.21225200  0.54556200  1
  C  378  1  0.47768200  0.23198500  0.54081500  1
  C  379  1  0.53368500  0.27659100  0.54063300  1
  C  380  1  0.55894000  0.29667600  0.54525100  1
  C  381  1  0.56957700  0.30509400  0.57561500  1
  C  382  1  0.55351700  0.29163400  0.60179700  1
  C  383  1  0.48950400  0.27695800  0.64195200  1
  C  384  1  0.49638400  0.26852400  0.67282100  1
  C  385  1  0.51560300  0.24251900  0.67294000  1
  C  386  1  0.52161000  0.23320900  0.64215100  1
  C  387  1  0.52755400  0.22622300  0.69880700  1
  C  388  1  0.54501700  0.19899700  0.69364400  1
  C  389  1  0.55105000  0.18782300  0.66299200  1
  C  390  1  0.53956900  0.20567200  0.63720000  1
  C  391  1  0.47107800  0.30413300  0.63671400  1
  C  392  1  0.46003200  0.32252900  0.66230500  1
  C  393  1  0.46716400  0.31235200  0.69308000  1
  C  394  1  0.48504500  0.28546500  0.69853600  1
  C  407  1  0.50544300  0.25490300  0.61974700  1
  C  408  1  0.48260800  0.77126300  0.91291000  1
  C  409  1  0.49092100  0.76372900  0.94361300  1
  C  410  1  0.51628600  0.74383700  0.94372000  1
  C  411  1  0.52629800  0.73805600  0.91313900  1
  C  412  1  0.55285800  0.71822700  0.90892300  1
  C  413  1  0.56840800  0.70411500  0.93509400  1
  C  414  1  0.55652700  0.71112300  0.96536900  1
  C  415  1  0.53088600  0.73072800  0.96991200  1
  C  416  1  0.47501600  0.77554500  0.96967400  1
  C  417  1  0.44997900  0.79586300  0.96485000  1
  C  418  1  0.44011800  0.80490100  0.93440700  1
  C  419  1  0.45664100  0.79177600  0.90835200  1
  C  420  1  0.52100000  0.77700200  0.86880100  1
  C  421  1  0.51438900  0.76857000  0.83786900  1
  C  422  1  0.49518200  0.74255300  0.83754900  1
  C  423  1  0.48877200  0.73332600  0.86827800  1
  C  424  1  0.48357700  0.72616100  0.81158600  1
  C  425  1  0.46598700  0.69898900  0.81661800  1
  C  426  1  0.45944000  0.68798700  0.84723200  1
  C  427  1  0.47065900  0.70586900  0.87310200  1
  C  428  1  0.53930000  0.80424400  0.87418400  1
  C  429  1  0.55063900  0.82260700  0.84869100  1
  C  430  1  0.54366600  0.81246500  0.81786000  1
  C  431  1  0.52589400  0.78554100  0.81225300  1
  C  444  1  0.50478600  0.75496000  0.89083100  1
  C  445  1  0.77693600  0.64214800  0.02100300  1
  C  446  1  0.76809300  0.67293500  0.01431700  1
  C  447  1  0.74214600  0.67278300  0.99501900  1
  C  448  1  0.73330700  0.64189800  0.98873400  1
  C  449  1  0.70585000  0.63670400  0.97071400  1
  C  450  1  0.68772300  0.66233800  0.95930800  1
  C  451  1  0.69844000  0.69310100  0.96563800  1
  C  452  1  0.72551800  0.69851000  0.98324100  1
  C  453  1  0.78467900  0.69880400  0.02585700  1
  C  454  1  0.81165900  0.69361100  0.04368700  1
  C  455  1  0.82231900  0.66292500  0.05046800  1
  C  456  1  0.80427600  0.63716700  0.03924700  1
  C  457  1  0.73868300  0.59767700  0.02713500  1
  C  458  1  0.74589700  0.56695100  0.01861600  1
  C  459  1  0.76579900  0.56677600  0.99326600  1
  C  460  1  0.77191300  0.59734700  0.98343500  1
  C  461  1  0.77865000  0.54052300  0.97854300  1
  C  462  1  0.79839100  0.54499400  0.95299900  1
  C  463  1  0.80581300  0.57525700  0.94134900  1
  C  464  1  0.79188800  0.60149100  0.95696700  1
  C  465  1  0.71826400  0.60224200  0.05318600  1
  C  466  1  0.70492900  0.57619900  0.06958100  1
  C  467  1  0.71364600  0.54574400  0.05947200  1
  C  468  1  0.73385700  0.54089700  0.03436400  1
  C  481  1  0.75515200  0.61971600  0.00501500  1
  C  482  1  0.73308000  0.36829500  0.52065100  1
  C  483  1  0.74176300  0.33743600  0.51405900  1
  C  484  1  0.76779600  0.33734700  0.49487600  1
  C  485  1  0.77685200  0.36815200  0.48856900  1
  C  486  1  0.80426700  0.37317500  0.47043700  1
  C  487  1  0.82232400  0.34743000  0.45919400  1
  C  488  1  0.81148600  0.31673900  0.46566200  1
  C  489  1  0.78434200  0.31150500  0.48322300  1
  C  490  1  0.72499400  0.31169000  0.52559500  1
  C  491  1  0.69799100  0.31709400  0.54331500  1
  C  492  1  0.68757800  0.34785300  0.55017300  1
  C  493  1  0.70581700  0.37348600  0.53896300  1
  C  494  1  0.77168000  0.41270800  0.52644300  1
  C  495  1  0.76542200  0.44337500  0.51699900  1
  C  496  1  0.74561900  0.44339900  0.49156700  1
  C  497  1  0.73861700  0.41273600  0.48265100  1
  C  498  1  0.73346100  0.46956300  0.47609600  1
  C  499  1  0.71339100  0.46488400  0.45083900  1
  C  500  1  0.70493600  0.43449900  0.44030300  1
  C  501  1  0.71833700  0.40834900  0.45646800  1
  C  502  1  0.79157900  0.40830000  0.55291100  1
  C  503  1  0.80530100  0.43440300  0.56888900  1
  C  504  1  0.79772700  0.46479200  0.55769600  1
  C  505  1  0.77804500  0.46950400  0.53214200  1
  C  518  1  0.75504200  0.39052100  0.50461200  1
  C  519  1  0.27676200  0.86882900  0.98869600  1
  C  520  1  0.26782500  0.83800700  0.99510800  1
  C  521  1  0.24177300  0.83804000  0.01426700  1
  C  522  1  0.23300500  0.86888300  0.02080500  1
  C  523  1  0.20570900  0.87403500  0.03907600  1
  C  524  1  0.18754000  0.84838300  0.05034300  1
  C  525  1  0.19801700  0.81763600  0.04350900  1
  C  526  1  0.22502300  0.81227100  0.02577700  1
  C  527  1  0.28447600  0.81219400  0.98356100  1
  C  528  1  0.31156400  0.81747900  0.96592800  1
  C  529  1  0.32226700  0.84819100  0.95931500  1
  C  530  1  0.30414400  0.87390400  0.97052700  1
  C  531  1  0.23838500  0.91339400  0.98291400  1
  C  532  1  0.24507500  0.94403800  0.99212700  1
  C  533  1  0.26492800  0.94398000  0.01752100  1
  C  534  1  0.27151500  0.91329100  0.02666300  1
  C  535  1  0.27740500  0.97008100  0.03283800  1
  C  536  1  0.29734000  0.96531300  0.05818800  1
  C  537  1  0.30530200  0.93489100  0.06901600  1
  C  538  1  0.29166200  0.90881500  0.05293000  1
  C  539  1  0.21819400  0.90905400  0.95665100  1
  C  540  1  0.20458600  0.93521100  0.94065700  1
  C  541  1  0.21269700  0.96557500  0.95154200  1
  C  542  1  0.23266400  0.97021600  0.97689000  1
  C  555  1  0.25491900  0.89114900  0.00476300  1
  C  556  1  0.23334300  0.14173700  0.48885200  1
  C  557  1  0.24215900  0.17262000  0.49515800  1
  C  558  1  0.26814000  0.17278100  0.51441700  1
  C  559  1  0.27701900  0.14200200  0.52108200  1
  C  560  1  0.30432000  0.13703300  0.53939800  1
  C  561  1  0.32232700  0.16279400  0.55068300  1
  C  562  1  0.31169700  0.19346800  0.54378500  1
  C  563  1  0.28472900  0.19865500  0.52593600  1
  C  564  1  0.22545100  0.19833200  0.48346700  1
  C  565  1  0.19838200  0.19288600  0.46586100  1
  C  566  1  0.18780700  0.16211900  0.45928300  1
  C  567  1  0.20599600  0.13651600  0.47066600  1
  C  568  1  0.27198200  0.09725700  0.48344300  1
  C  569  1  0.26584700  0.06665500  0.49317100  1
  C  570  1  0.24598200  0.06677400  0.51854900  1
  C  571  1  0.23881000  0.09748600  0.52715400  1
  C  572  1  0.23394400  0.04069800  0.53425600  1
  C  573  1  0.21379800  0.04551500  0.55942400  1
  C  574  1  0.20514300  0.07596100  0.56962100  1
  C  575  1  0.21846500  0.10202300  0.55325800  1
  C  576  1  0.29191700  0.10149500  0.45697300  1
  C  577  1  0.30579100  0.07530600  0.44125400  1
  C  578  1  0.29835200  0.04499700  0.45276600  1
  C  579  1  0.27864700  0.04044300  0.47832700  1
  C  592  1  0.25524400  0.11957300  0.50507300  1
  C  593  1  0.14199300  0.48912100  0.23319000  1
  C  594  1  0.17284600  0.49571300  0.24188800  1
  C  595  1  0.17290600  0.51494600  0.26788600  1
  C  596  1  0.14209200  0.52125200  0.27692100  1
  C  597  1  0.13706300  0.53940000  0.30432000  1
  C  598  1  0.16279400  0.55079500  0.32231100  1
  C  599  1  0.19348800  0.54429500  0.31149600  1
  C  600  1  0.19873700  0.52668900  0.28438300  1
  C  601  1  0.19859900  0.48416300  0.22513800  1
  C  602  1  0.19321100  0.46646200  0.19811700  1
  C  603  1  0.16245700  0.45965700  0.18766000  1
  C  604  1  0.13681700  0.47084400  0.20590100  1
  C  605  1  0.09754300  0.48328200  0.27169700  1
  C  606  1  0.06687500  0.49246900  0.26506800  1
  C  607  1  0.06686500  0.51788300  0.24524800  1
  C  608  1  0.09752900  0.52705600  0.23860500  1
  C  609  1  0.04071400  0.53318700  0.23286200  1
  C  610  1  0.04540500  0.55858900  0.21298000  1
  C  611  1  0.07579600  0.56944100  0.20493600  1
  C  612  1  0.10192300  0.55335800  0.21848500  1
  C  613  1  0.10192400  0.45696100  0.29180500  1
  C  614  1  0.07578700  0.44093600  0.30540900  1
  C  615  1  0.04540100  0.45179600  0.29735600  1
  C  616  1  0.04071800  0.47718600  0.27746400  1
  C  629  1  0.11974000  0.50515700  0.25512500  1
  C  630  1  0.86866100  0.98898600  0.27678100  1
  C  631  1  0.83788800  0.99591500  0.26809800  1
  C  632  1  0.83806400  0.01513300  0.24209100  1
  C  633  1  0.86894900  0.02120600  0.23310500  1
  C  634  1  0.87414500  0.03924500  0.20565400  1
  C  635  1  0.84851100  0.05074400  0.18757500  1
  C  636  1  0.81775500  0.04442300  0.19833500  1
  C  637  1  0.81233900  0.02693000  0.22548000  1
  C  638  1  0.81202600  0.98458300  0.28482900  1
  C  639  1  0.81725000  0.96667600  0.31175100  1
  C  640  1  0.84793800  0.95945300  0.32213100  1
  C  641  1  0.87367200  0.97057200  0.30400600  1
  C  642  1  0.91313700  0.98269900  0.23862800  1
  C  643  1  0.94384900  0.99090900  0.24626700  1
  C  644  1  0.94400300  0.01625800  0.26617900  1
  C  645  1  0.91344800  0.02638700  0.27184700  1
  C  646  1  0.97019800  0.03074700  0.27941600  1
  C  647  1  0.96567300  0.05640600  0.29900700  1
  C  648  1  0.93541700  0.06841200  0.30588200  1
  C  649  1  0.90925000  0.05293600  0.29169000  1
  C  650  1  0.90857200  0.95677500  0.21805300  1
  C  651  1  0.93462600  0.94022900  0.20494200  1
  C  652  1  0.96506300  0.94994700  0.21415600  1
  C  653  1  0.96989800  0.97492100  0.23454300  1
  C  666  1  0.89110000  0.00490100  0.25496800  1
  C  667  1  0.36855200  0.52086400  0.73299800  1
  C  668  1  0.33767900  0.51425600  0.74162000  1
  C  669  1  0.33754300  0.49509500  0.76767200  1
  C  670  1  0.36833500  0.48878900  0.77677700  1
  C  671  1  0.37332300  0.47065900  0.80419700  1
  C  672  1  0.34755400  0.45938100  0.82219800  1
  C  673  1  0.31687900  0.46587300  0.81132900  1
  C  674  1  0.31168100  0.48344600  0.78418300  1
  C  675  1  0.31196600  0.52565500  0.72471800  1
  C  676  1  0.31742200  0.54336900  0.69772200  1
  C  677  1  0.34819700  0.55030600  0.68740000  1
  C  678  1  0.37379300  0.53915200  0.70572800  1
  C  679  1  0.41295100  0.52659100  0.77168700  1
  C  680  1  0.44360200  0.51703600  0.76551300  1
  C  681  1  0.44359300  0.49160900  0.74570300  1
  C  682  1  0.41291600  0.48281900  0.73861300  1
  C  683  1  0.46972400  0.47603100  0.73360900  1
  C  684  1  0.46498900  0.45081800  0.71348900  1
  C  685  1  0.43457800  0.44045000  0.70492400  1
  C  686  1  0.40846400  0.45668500  0.71829000  1
  C  687  1  0.40857800  0.55307300  0.79157000  1
  C  688  1  0.43469500  0.56897400  0.80535700  1
  C  689  1  0.46506600  0.55765100  0.79789500  1
  C  690  1  0.46974500  0.53208400  0.77822200  1
  C  703  1  0.39073600  0.50482800  0.75500200  1
  C  704  1  0.64183500  0.02078700  0.77698300  1
  C  705  1  0.67279700  0.01450900  0.76836400  1
  C  706  1  0.67320400  0.99524400  0.74239600  1
  C  707  1  0.64249900  0.98860100  0.73330000  1
  C  708  1  0.63769800  0.97038500  0.70591500  1
  C  709  1  0.66356100  0.95924000  0.68799700  1
  C  710  1  0.69417700  0.96598600  0.69887700  1
  C  711  1  0.69918800  0.98368500  0.72599000  1
  C  712  1  0.69840900  0.02630900  0.78514200  1
  C  713  1  0.69280400  0.04396900  0.81213100  1
  C  714  1  0.66197500  0.05044200  0.82257400  1
  C  715  1  0.63645400  0.03898800  0.80429500  1
  C  716  1  0.59746000  0.02571300  0.73778700  1
  C  717  1  0.56701400  0.01481100  0.74256000  1
  C  718  1  0.56720100  0.98944900  0.76245000  1
  C  719  1  0.59786900  0.98199500  0.77098000  1
  C  720  1  0.54119900  0.97293800  0.77355300  1
  C  721  1  0.54602300  0.94826600  0.79429900  1
  C  722  1  0.57639800  0.93941800  0.80451000  1
  C  723  1  0.60244300  0.95635200  0.79190400  1
  C  724  1  0.60149300  0.05259100  0.71834400  1
  C  725  1  0.57531500  0.06767700  0.70371500  1
  C  726  1  0.54523000  0.05469200  0.70950500  1
  C  727  1  0.54084100  0.02870900  0.72868200  1
  C  740  1  0.61985700  0.00446900  0.75494200  1
  C  741  1  0.98882700  0.27683200  0.86855100  1
  C  742  1  0.99556400  0.26804900  0.83776000  1
  C  743  1  0.01478200  0.24203700  0.83788300  1
  C  744  1  0.02108000  0.23316800  0.86875500  1
  C  745  1  0.03917100  0.20574900  0.87393200  1
  C  746  1  0.05058600  0.18763600  0.84829200  1
  C  747  1  0.04408400  0.19829800  0.81753700  1
  C  748  1  0.02646700  0.22537000  0.81214500  1
  C  749  1  0.98414400  0.28474800  0.81191600  1
  C  750  1  0.96626400  0.31168300  0.81715400  1
  C  751  1  0.95924200  0.32218000  0.84785200  1
  C  752  1  0.97048100  0.30410200  0.87357600  1
  C  753  1  0.98276900  0.23860000  0.91305000  1
  C  754  1  0.99134800  0.24586800  0.94375100  1
  C  755  1  0.01671200  0.26575800  0.94383700  1
  C  756  1  0.02646800  0.27179500  0.91322800  1
  C  757  1  0.03153200  0.27866100  0.97001500  1
  C  758  1  0.05709300  0.29836200  0.96541100  1
  C  759  1  0.06865200  0.30567600  0.93508900  1
  C  760  1  0.05294000  0.29171800  0.90894200  1
  C  761  1  0.95671200  0.21818100  0.90854900  1
  C  762  1  0.94037200  0.20487700  0.93463600  1
  C  763  1  0.95052000  0.21365400  0.96506500  1
  C  764  1  0.97563700  0.23387400  0.96984500  1
  C  777  1  0.00483300  0.25502700  0.89094300  1
  C  778  1  0.48893400  0.23311600  0.14164900  1
  C  779  1  0.49546700  0.24191300  0.17248400  1
  C  780  1  0.51464400  0.26795100  0.17248500  1
  C  781  1  0.52102500  0.27687900  0.14165200  1
  C  782  1  0.53922500  0.30423800  0.13656300  1
  C  783  1  0.55046800  0.32236500  0.16226600  1
  C  784  1  0.54388300  0.31166700  0.19298400  1
  C  785  1  0.52625600  0.28458200  0.19828600  1
  C  786  1  0.48393400  0.22519800  0.19826600  1
  C  787  1  0.46624900  0.19815500  0.19292800  1
  C  788  1  0.45948200  0.18761700  0.16219200  1
  C  789  1  0.47068500  0.20580000  0.13652100  1
  C  790  1  0.48304600  0.27150500  0.09715300  1
  C  791  1  0.49211600  0.26471500  0.06648700  1
  C  792  1  0.51753400  0.24489700  0.06649000  1
  C  793  1  0.52681800  0.23840600  0.09715300  1
  C  794  1  0.53274100  0.23237400  0.04034800  1
  C  795  1  0.55816600  0.21252600  0.04504700  1
  C  796  1  0.56916100  0.20466100  0.07543600  1
  C  797  1  0.55315000  0.21832300  0.10155200  1
  C  798  1  0.45678400  0.29168300  0.10154300  1
  C  799  1  0.44066000  0.30516200  0.07540300  1
  C  800  1  0.45138700  0.29694200  0.04501500  1
  C  801  1  0.47673200  0.27698900  0.04033000  1
  C  814  1  0.50496800  0.25500400  0.11935300  1
  C  815  1  0.02087500  0.77689900  0.64180200  1
  C  816  1  0.01486500  0.76804600  0.67274800  1
  C  817  1  0.99562500  0.74206000  0.67310300  1
  C  818  1  0.98875700  0.73317600  0.64238200  1
  C  819  1  0.97044300  0.70586400  0.63751600  1
  C  820  1  0.95946200  0.68779500  0.66334300  1
  C  821  1  0.96646100  0.69844000  0.69398300  1
  C  822  1  0.98427200  0.72546700  0.69905500  1
  C  823  1  0.02680800  0.78469700  0.69837900  1
  C  824  1  0.04436100  0.81177100  0.69282300  1
  C  825  1  0.05045000  0.82249200  0.66201300  1
  C  826  1  0.03892000  0.80431400  0.63646100  1
  C  827  1  0.02581600  0.73793000  0.59735000  1
  C  828  1  0.01507000  0.74293600  0.56688800  1
  C  829  1  0.98968100  0.76278900  0.56712600  1
  C  830  1  0.98206500  0.77105800  0.59782900  1
  C  831  1  0.97326300  0.77406200  0.54114000  1
  C  832  1  0.94854000  0.79473800  0.54601600  1
  C  833  1  0.93952300  0.80467400  0.57643300  1
  C  834  1  0.95637600  0.79191100  0.60245400  1
  C  835  1  0.05267100  0.71847000  0.60139300  1
  C  836  1  0.06787500  0.70403500  0.57519100  1
  C  837  1  0.05513500  0.71012400  0.54506200  1
  C  838  1  0.02915500  0.72931300  0.54067700  1
  C  851  1  0.00451500  0.75494200  0.61978400  1
  C  852  1  0.52084500  0.73302400  0.36836100  1
  C  853  1  0.51458100  0.74182600  0.33745900  1
  C  854  1  0.49532400  0.76780500  0.33724400  1
  C  855  1  0.48863900  0.77670700  0.36800700  1
  C  856  1  0.47038300  0.80405000  0.37295300  1
  C  857  1  0.45917600  0.82206700  0.34717300  1
  C  858  1  0.46603400  0.81139400  0.31650500  1
  C  859  1  0.48384500  0.78439300  0.31135100  1
  C  860  1  0.52631700  0.72512700  0.31176500  1
  C  861  1  0.54391100  0.69805900  0.31723900  1
  C  862  1  0.55042800  0.68748200  0.34801900  1
  C  863  1  0.53901500  0.70567500  0.37361000  1
  C  864  1  0.52613500  0.77179900  0.41280400  1
  C  865  1  0.51602100  0.76617300  0.44337500  1
  C  866  1  0.49062900  0.74632000  0.44325800  1
  C  867  1  0.48240300  0.73865000  0.41256000  1
  C  868  1  0.47467000  0.73461000  0.46933400  1
  C  869  1  0.44970100  0.71421000  0.46453500  1
  C  870  1  0.43997800  0.70496400  0.43411300  1
  C  871  1  0.45648400  0.71806300  0.40803300  1
  C  872  1  0.55280400  0.79146900  0.40858000  1
  C  873  1  0.56839400  0.80554200  0.43474400  1
  C  874  1  0.55639100  0.79874400  0.46501500  1
  C  875  1  0.53061700  0.77931000  0.46956000  1
  C  888  1  0.50459800  0.75494900  0.39048400  1
  C  889  1  0.44614200  0.85286300  0.34935000  1
  C  891  1  0.41233400  0.88798500  0.31994000  1
  C  892  1  0.43313300  0.91317200  0.32442000  1
  C  894  1  0.46539300  0.87889800  0.35680000  1
  C  896  1  0.49555400  0.87705100  0.37022900  1
  C  901  1  0.06362100  0.15682600  0.85060200  1
  C  903  1  0.09760900  0.12202700  0.82090700  1
  C  904  1  0.07667600  0.09685500  0.82481900  1
  C  906  1  0.04433600  0.13067800  0.85753000  1
  C  908  1  0.01429600  0.13239100  0.87125400  1
  C  913  1  0.56360700  0.35314200  0.15997300  1
  C  915  1  0.59743600  0.38810800  0.18941500  1
  C  916  1  0.57666000  0.41334400  0.18503100  1
  C  918  1  0.54431600  0.37914500  0.15257900  1
  C  920  1  0.51414600  0.37733800  0.13916300  1
  C  925  1  0.94668300  0.65690300  0.66108400  1
  C  927  1  0.91289800  0.62162700  0.69029700  1
  C  928  1  0.93372600  0.59646600  0.68568600  1
  C  930  1  0.96603500  0.63098000  0.65363400  1
  C  932  1  0.99614600  0.63301700  0.64011600  1
  C  937  1  0.34974900  0.44632900  0.85298900  1
  C  939  1  0.32035600  0.41244600  0.88805500  1
  C  940  1  0.32474100  0.43321300  0.91328900  1
  C  942  1  0.35708500  0.46559200  0.87904600  1
  C  944  1  0.37040900  0.49579900  0.87723600  1
  C  949  1  0.85080100  0.06354700  0.15665200  1
  C  951  1  0.82115900  0.09747500  0.12179900  1
  C  952  1  0.82487300  0.07636800  0.09673700  1
  C  954  1  0.85753500  0.04404200  0.13063500  1
  C  956  1  0.87112800  0.01395300  0.13248600  1
  C  961  1  0.16060500  0.56358800  0.35323100  1
  C  963  1  0.18963700  0.59739400  0.38856600  1
  C  964  1  0.18521500  0.57647000  0.41368000  1
  C  966  1  0.15326200  0.54405100  0.37905400  1
  C  968  1  0.14021600  0.51373900  0.37698900  1
  C  973  1  0.66141900  0.94671800  0.65699400  1
  C  975  1  0.69038900  0.91296800  0.62148900  1
  C  976  1  0.68574500  0.93386400  0.59638200  1
  C  978  1  0.65402200  0.96623900  0.63118800  1
  C  980  1  0.64078700  0.99645700  0.63339800  1
  C  985  1  0.85318300  0.34965600  0.44625400  1
  C  987  1  0.88829400  0.32038400  0.41242000  1
  C  988  1  0.91339900  0.32461400  0.43338300  1
  C  990  1  0.87908800  0.35690500  0.46573200  1
  C  992  1  0.87713800  0.37011900  0.49598400  1
  C  997  1  0.15680900  0.85077700  0.06354500  1
  C  999  1  0.12227200  0.82095400  0.09760000  1
  C  1000  1  0.09699200  0.82497600  0.07681600  1
  C  1002  1  0.13059000  0.85783700  0.04442400  1
  C  1004  1  0.13217500  0.87166800  0.01442500  1
  C  1009  1  0.35304700  0.16060500  0.56391800  1
  C  1011  1  0.38806800  0.19007800  0.59778500  1
  C  1012  1  0.41342800  0.18532100  0.57725600  1
  C  1014  1  0.37919200  0.15291600  0.54491700  1
  C  1016  1  0.37750100  0.13935200  0.51481000  1
  C  1021  1  0.65674400  0.66000600  0.94672300  1
  C  1023  1  0.62132700  0.68915400  0.91291000  1
  C  1024  1  0.59636100  0.68517600  0.93409600  1
  C  1026  1  0.63090300  0.65313100  0.96641900  1
  C  1028  1  0.63305200  0.63985700  0.99663100  1
  C  1033  1  0.56346900  0.15676300  0.66093700  1
  C  1035  1  0.59732400  0.12104500  0.68951200  1
  C  1036  1  0.57611700  0.09610700  0.68541700  1
  C  1038  1  0.54350700  0.13113200  0.65405000  1
  C  1040  1  0.51296500  0.13347800  0.64159600  1
  C  1045  1  0.94636300  0.85327500  0.15900500  1
  C  1047  1  0.91234900  0.88799000  0.18876900  1
  C  1048  1  0.93325100  0.91318400  0.18485900  1
  C  1050  1  0.96557700  0.87946900  0.15204300  1
  C  1052  1  0.99557400  0.87782300  0.13820900  1
  C  1057  1  0.44646000  0.65715300  0.84928800  1
  C  1059  1  0.41271700  0.62197500  0.81987800  1
  C  1060  1  0.43343700  0.59674200  0.82448900  1
  C  1062  1  0.46569700  0.63113200  0.85680100  1
  C  1064  1  0.49585300  0.63299800  0.87022800  1
  C  1069  1  0.06373100  0.35324800  0.35000200  1
  C  1071  1  0.09767800  0.38810100  0.32042200  1
  C  1072  1  0.07696400  0.41338100  0.32483200  1
  C  1074  1  0.04462000  0.37938100  0.35737500  1
  C  1076  1  0.01460100  0.37765100  0.37114300  1
  C  1081  1  0.65983100  0.56425000  0.15689600  1
  C  1083  1  0.68945300  0.59823800  0.12217400  1
  C  1084  1  0.68509200  0.57762300  0.09681400  1
  C  1086  1  0.65243500  0.54518500  0.13070600  1
  C  1088  1  0.63888800  0.51505800  0.13226900  1
  C  1093  1  0.15941600  0.94672300  0.85301700  1
  C  1095  1  0.18888000  0.91287500  0.88814000  1
  C  1096  1  0.18508100  0.93403900  0.91314100  1
  C  1098  1  0.15264400  0.96631600  0.87896900  1
  C  1100  1  0.13914400  0.99644100  0.87699000  1
  C  1105  1  0.84917100  0.44629400  0.65700600  1
  C  1107  1  0.81967900  0.41251100  0.62193300  1
  C  1108  1  0.82442400  0.43314300  0.59665800  1
  C  1110  1  0.85688500  0.46534700  0.63090100  1
  C  1112  1  0.87052900  0.49541600  0.63265200  1
  C  1117  1  0.34983100  0.06332600  0.35312400  1
  C  1119  1  0.32058800  0.09724700  0.38827400  1
  C  1120  1  0.32489300  0.07636700  0.41344700  1
  C  1122  1  0.35701200  0.04392200  0.37908400  1
  C  1124  1  0.37041400  0.01375600  0.37711300  1
  C  1129  1  0.15690300  0.66127400  0.56324900  1
  C  1131  1  0.12127200  0.69003600  0.59707600  1
  C  1132  1  0.09623900  0.68567900  0.57604300  1
  C  1134  1  0.13115200  0.65414900  0.54352300  1
  C  1136  1  0.13339100  0.64144400  0.51307700  1
  C  1141  1  0.85319500  0.15941900  0.94649100  1
  C  1143  1  0.88788500  0.18919500  0.91253300  1
  C  1144  1  0.91314100  0.18503400  0.93331900  1
  C  1146  1  0.87937100  0.15223700  0.96562100  1
  C  1148  1  0.87771800  0.13836100  0.99559700  1
  C  1153  1  0.65698700  0.84870500  0.44654600  1
  C  1155  1  0.62162000  0.81966300  0.41281300  1
  C  1156  1  0.59647800  0.82425800  0.43367300  1
  C  1158  1  0.63117400  0.85617400  0.46604800  1
  C  1160  1  0.63327200  0.86924800  0.49634200  1
  C  1165  1  0.35319600  0.35018200  0.06366700  1
  C  1167  1  0.38805200  0.32063200  0.09757200  1
  C  1168  1  0.41319200  0.32471500  0.07662500  1
  C  1170  1  0.37921500  0.35729300  0.04430300  1
  C  1172  1  0.37739100  0.37097700  0.01425000  1
  C  1177  1  0.94581100  0.35282900  0.85010600  1
  C  1179  1  0.91176400  0.38735300  0.82041800  1
  C  1180  1  0.93231100  0.41276800  0.82478400  1
  C  1182  1  0.96481700  0.37904200  0.85752300  1
  C  1184  1  0.99494500  0.37753900  0.87107700  1
  C  1189  1  0.56343200  0.65665100  0.35042800  1
  C  1191  1  0.59736100  0.62179700  0.32088500  1
  C  1192  1  0.57635600  0.59667200  0.32480800  1
  C  1194  1  0.54400200  0.63064600  0.35739600  1
  C  1196  1  0.51392600  0.63247000  0.37102600  1
  C  1201  1  0.06325700  0.85337700  0.65959500  1
  C  1203  1  0.09713900  0.88874500  0.68867000  1
  C  1204  1  0.07605700  0.91378900  0.68465300  1
  C  1206  1  0.04361700  0.87924900  0.65263100  1
  C  1208  1  0.01326600  0.87719400  0.63966500  1
  C  1213  1  0.44635700  0.15685600  0.15977800  1
  C  1215  1  0.41239200  0.12205600  0.18939900  1
  C  1216  1  0.43316400  0.09680100  0.18512500  1
  C  1218  1  0.46550300  0.13071800  0.15251000  1
  C  1220  1  0.49551400  0.13243500  0.13872400  1
  C  1225  1  0.85021600  0.94596000  0.35271700  1
  C  1227  1  0.82036400  0.91189000  0.38718900  1
  C  1228  1  0.82461600  0.93249400  0.41255800  1
  C  1230  1  0.85753300  0.96489900  0.37903300  1
  C  1232  1  0.87125900  0.99495600  0.37760400  1
  C  1237  1  0.35072000  0.56371900  0.65677000  1
  C  1239  1  0.32083800  0.59786900  0.62237500  1
  C  1240  1  0.32494900  0.57725900  0.59696600  1
  C  1242  1  0.35785000  0.54475800  0.63045400  1
  C  1244  1  0.37178900  0.51479800  0.63189400  1
  C  1249  1  0.65950600  0.06362500  0.85331200  1
  C  1251  1  0.68897200  0.09753700  0.88835000  1
  C  1252  1  0.68481200  0.07667700  0.91354100  1
  C  1254  1  0.65232900  0.04432300  0.87938900  1
  C  1256  1  0.63890300  0.01415400  0.87762600  1
  C  1261  1  0.15999100  0.44656300  0.15689000  1
  C  1263  1  0.18951300  0.41259300  0.12200100  1
  C  1264  1  0.18523000  0.43340000  0.09678100  1
  C  1266  1  0.15271800  0.46575400  0.13078700  1
  C  1268  1  0.13900800  0.49579700  0.13255800  1
  C  1273  1  0.35298600  0.85045500  0.94609600  1
  C  1275  1  0.38775500  0.82076200  0.91216400  1
  C  1276  1  0.41302100  0.82489900  0.93293600  1
  C  1278  1  0.37914700  0.85760500  0.96529900  1
  C  1280  1  0.37750100  0.87111900  0.99543800  1
  C  1285  1  0.65687800  0.35031800  0.56342900  1
  C  1287  1  0.62223900  0.32060600  0.59748800  1
  C  1288  1  0.59692700  0.32479200  0.57677000  1
  C  1290  1  0.63066700  0.35751800  0.54435500  1
  C  1292  1  0.63226400  0.37137200  0.51436800  1
  C  1297  1  0.85321800  0.66071000  0.06327900  1
  C  1299  1  0.88855800  0.68977600  0.09702800  1
  C  1300  1  0.91367900  0.68530700  0.07611600  1
  C  1302  1  0.87902700  0.65334200  0.04373200  1
  C  1304  1  0.87693900  0.64030800  0.01341400  1
  C  1309  1  0.15700900  0.15971400  0.44619100  1
  C  1311  1  0.12220000  0.18924400  0.41219800  1
  C  1312  1  0.09700400  0.18517300  0.43308700  1
  C  1314  1  0.13094200  0.15260200  0.46548900  1
  C  1316  1  0.13270200  0.13893500  0.49555100  1
  C  1321  1  0.06399300  0.65723500  0.16053100  1
  C  1323  1  0.09786400  0.62224200  0.18993300  1
  C  1324  1  0.07708600  0.59701800  0.18554700  1
  C  1326  1  0.04470200  0.63120700  0.15317000  1
  C  1328  1  0.01450100  0.63300500  0.13982500  1
  C  1333  1  0.44660000  0.35312800  0.65974700  1
  C  1335  1  0.41262600  0.38783200  0.68953800  1
  C  1336  1  0.43328300  0.41315700  0.68517600  1
  C  1338  1  0.46555500  0.37939500  0.65236500  1
  C  1340  1  0.49544400  0.37784000  0.63829000  1
  C  1345  1  0.94698500  0.15678100  0.34973100  1
  C  1347  1  0.91321600  0.12138700  0.32072800  1
  C  1348  1  0.93436700  0.09639400  0.32478000  1
  C  1350  1  0.96679500  0.13106300  0.35669700  1
  C  1352  1  0.99718200  0.13325900  0.36954600  1
  C  1357  1  0.56408900  0.85322800  0.85127100  1
  C  1359  1  0.59844200  0.88741500  0.82135600  1
  C  1360  1  0.57775900  0.91280700  0.82512800  1
  C  1362  1  0.54510400  0.87960700  0.85812700  1
  C  1364  1  0.51508800  0.87826700  0.87196300  1
  C  1369  1  0.16006100  0.06420200  0.65693800  1
  C  1371  1  0.18974100  0.09809400  0.62219000  1
  C  1372  1  0.18540500  0.07736700  0.59692200  1
  C  1374  1  0.15265800  0.04507800  0.63078800  1
  C  1376  1  0.13903500  0.01498700  0.63241400  1
  C  1381  1  0.65972600  0.44643400  0.35289500  1
  C  1383  1  0.68939700  0.41246200  0.38771100  1
  C  1384  1  0.68525100  0.43328100  0.41294400  1
  C  1386  1  0.65258900  0.46560900  0.37906800  1
  C  1388  1  0.63877200  0.49560700  0.37738400  1
  C  1393  1  0.34994400  0.94643700  0.15670300  1
  C  1395  1  0.32045200  0.91267800  0.12171800  1
  C  1396  1  0.32478300  0.93352000  0.09652600  1
  C  1398  1  0.35729800  0.96578500  0.13073100  1
  C  1400  1  0.37075000  0.99593800  0.13257600  1
  C  1405  1  0.85025600  0.56330800  0.85331700  1
  C  1407  1  0.82112900  0.59733800  0.88850000  1
  C  1408  1  0.82493100  0.57618100  0.91351600  1
  C  1410  1  0.85700700  0.54365200  0.87920500  1
  C  1412  1  0.87016900  0.51338400  0.87715200  1
  C  1417  1  0.65691000  0.16014000  0.06373800  1
  C  1419  1  0.62193800  0.18955900  0.09757500  1
  C  1420  1  0.59674900  0.18527000  0.07672600  1
  C  1422  1  0.63094000  0.15284400  0.04436800  1
  C  1424  1  0.63278800  0.13952700  0.01415700  1
  C  1429  1  0.35318500  0.65903400  0.44623300  1
  C  1431  1  0.38763300  0.68889400  0.41209500  1
  C  1432  1  0.41298600  0.68481400  0.43277600  1
  C  1434  1  0.37948600  0.65188000  0.46520900  1
  C  1436  1  0.37802000  0.63790600  0.49515100  1
  C  1441  1  0.15687500  0.34978000  0.94666700  1
  C  1443  1  0.12155300  0.32054600  0.91289600  1
  C  1444  1  0.09652300  0.32470600  0.93395800  1
  C  1446  1  0.13098500  0.35690000  0.96623400  1
  C  1448  1  0.13302400  0.37005800  0.99650000  1
  C  1453  1  0.85314800  0.85114200  0.56401600  1
  C  1455  1  0.88738200  0.82123000  0.59838600  1
  C  1456  1  0.91287500  0.82523800  0.57787100  1
  C  1458  1  0.87961900  0.85821800  0.54522300  1
  C  1460  1  0.87837700  0.87220100  0.51527300  1
  N  890  1  0.42064600  0.85924700  0.33101200  1
  N  893  1  0.45822200  0.90655900  0.34297100  1
  N  898  1  0.50043600  0.86710600  0.39979100  1
  N  902  1  0.08920700  0.15062200  0.83229900  1
  N  905  1  0.05152100  0.10318900  0.84337200  1
  N  910  1  0.00961800  0.14246300  0.90080900  1
  N  914  1  0.58914700  0.35938800  0.17827300  1
  N  917  1  0.55152500  0.40674700  0.16651700  1
  N  922  1  0.50924500  0.36734800  0.10962000  1
  N  926  1  0.92119900  0.65045600  0.67942200  1
  N  929  1  0.95882800  0.60322400  0.66720800  1
  N  934  1  0.00096400  0.64319600  0.61062200  1
  N  938  1  0.33147000  0.42078700  0.85934300  1
  N  941  1  0.34320400  0.45837100  0.90667100  1
  N  946  1  0.39997800  0.50078500  0.86736600  1
  N  950  1  0.83261000  0.08920400  0.15041400  1
  N  953  1  0.84332500  0.05115700  0.10315500  1
  N  958  1  0.90070400  0.00921100  0.14246800  1
  N  962  1  0.17870400  0.58921000  0.35972700  1
  N  965  1  0.16693200  0.55124700  0.40678200  1
  N  970  1  0.11066800  0.50856900  0.36715400  1
  N  974  1  0.67962500  0.92118300  0.65038900  1
  N  977  1  0.66745200  0.95904600  0.60336400  1
  N  982  1  0.61124200  0.00145900  0.64333100  1
  N  986  1  0.85953700  0.33149900  0.42063700  1
  N  989  1  0.90672000  0.34301300  0.45857500  1
  N  994  1  0.86723200  0.39966400  0.50103500  1
  N  998  1  0.15082400  0.83236300  0.08909400  1
  N  1001  1  0.10314700  0.84362900  0.05169200  1
  N  1006  1  0.14244200  0.90116200  0.00977400  1
  N  1010  1  0.35934100  0.17907800  0.58933900  1
  N  1013  1  0.40685900  0.16667500  0.55221700  1
  N  1018  1  0.36756500  0.10977400  0.51001600  1
  N  1022  1  0.65011700  0.67805100  0.92106200  1
  N  1025  1  0.60321900  0.66692800  0.95933800  1
  N  1030  1  0.64309100  0.61034200  0.00160900  1
  N  1034  1  0.58927800  0.14996200  0.67865900  1
  N  1037  1  0.55067400  0.10333700  0.66757600  1
  N  1042  1  0.50731100  0.14310500  0.61207000  1
  N  1046  1  0.92079300  0.85942000  0.17734700  1
  N  1049  1  0.95838400  0.90693100  0.16625200  1
  N  1054  1  0.00019200  0.86753600  0.10871800  1
  N  1058  1  0.42100400  0.65073500  0.83091000  1
  N  1061  1  0.45852300  0.60344600  0.84302100  1
  N  1066  1  0.50068400  0.64267700  0.89988500  1
  N  1070  1  0.08920700  0.35941900  0.33155000  1
  N  1073  1  0.05190300  0.40697900  0.34349200  1
  N  1078  1  0.00990200  0.36725000  0.40058100  1
  N  1082  1  0.67821700  0.58976900  0.15080000  1
  N  1085  1  0.66647900  0.55250500  0.10318100  1
  N  1090  1  0.60936200  0.51018500  0.14232000  1
  N  1094  1  0.17755300  0.92107800  0.85945700  1
  N  1097  1  0.16670700  0.95925600  0.90653300  1
  N  1102  1  0.10957800  0.00123200  0.86700500  1
  N  1106  1  0.83067700  0.42089900  0.65067600  1
  N  1109  1  0.84312400  0.45813500  0.60321400  1
  N  1114  1  0.90006100  0.50014200  0.64276300  1
  N  1118  1  0.33161100  0.08891400  0.35951000  1
  N  1121  1  0.34327000  0.05116600  0.40675400  1
  N  1126  1  0.39990700  0.00882400  0.36698600  1
  N  1130  1  0.15016500  0.67920700  0.58893900  1
  N  1133  1  0.10334800  0.66765300  0.55070200  1
  N  1138  1  0.14302000  0.61187800  0.50763400  1
  N  1142  1  0.85927700  0.17786900  0.92098900  1
  N  1145  1  0.90687500  0.16634600  0.95839400  1
  N  1150  1  0.86735400  0.10889400  0.00019700  1
  N  1154  1  0.65048200  0.83053600  0.42098300  1
  N  1157  1  0.60341500  0.84256500  0.45886900  1
  N  1162  1  0.64289600  0.89887500  0.50145100  1
  N  1166  1  0.35937700  0.33188700  0.08924000  1
  N  1169  1  0.40676600  0.34326800  0.05148600  1
  N  1174  1  0.36718200  0.40047800  0.00954100  1
  N  1178  1  0.92028500  0.35876200  0.83168900  1
  N  1181  1  0.95744700  0.40652300  0.84341800  1
  N  1186  1  0.99984100  0.36743200  0.90058200  1
  N  1190  1  0.58905600  0.65045400  0.33220500  1
  N  1193  1  0.55118100  0.60312300  0.34330500  1
  N  1198  1  0.50918900  0.64259000  0.40055500  1
  N  1202  1  0.08896700  0.85997400  0.67756300  1
  N  1205  1  0.05075500  0.90690700  0.66648400  1
  N  1210  1  0.00800700  0.86721600  0.61018000  1
  N  1214  1  0.42084800  0.15070900  0.17819400  1
  N  1217  1  0.45825000  0.10315900  0.16648500  1
  N  1222  1  0.50016300  0.14267300  0.10922200  1
  N  1226  1  0.83174500  0.92046100  0.35866100  1
  N  1229  1  0.84332500  0.95759100  0.40647600  1
  N  1234  1  0.90074800  0.99972900  0.36739000  1
  N  1238  1  0.33224000  0.58924500  0.65089100  1
  N  1241  1  0.34363900  0.55213500  0.60303700  1
  N  1246  1  0.40120300  0.51016400  0.64238900  1
  N  1250  1  0.67774000  0.08921300  0.85967000  1
  N  1253  1  0.66633400  0.05151700  0.90696600  1
  N  1258  1  0.60942000  0.00923200  0.86746600  1
  N  1262  1  0.17836400  0.42103500  0.15068300  1
  N  1265  1  0.16662500  0.45849800  0.10319400  1
  N  1270  1  0.10954900  0.50052000  0.14288500  1
  N  1274  1  0.35915700  0.83211900  0.92054700  1
  N  1277  1  0.40664000  0.84344200  0.95809400  1
  N  1282  1  0.36746000  0.90065000  0.00030900  1
  N  1286  1  0.65083800  0.33188900  0.58895700  1
  N  1289  1  0.60316500  0.34345700  0.55167200  1
  N  1294  1  0.64260600  0.40084000  0.50972900  1
  N  1298  1  0.85971200  0.67884700  0.08887100  1
  N  1301  1  0.90675500  0.66701700  0.05090700  1
  N  1306  1  0.86695900  0.61081600  0.00821000  1
  N  1310  1  0.15085800  0.17799300  0.42059300  1
  N  1313  1  0.10340500  0.16663200  0.45824300  1
  N  1318  1  0.14285000  0.10941600  0.50028400  1
  N  1322  1  0.08953800  0.65095400  0.17881000  1
  N  1325  1  0.05192400  0.60359100  0.16706900  1
  N  1330  1  0.00954000  0.64279800  0.11022700  1
  N  1334  1  0.42117500  0.35922500  0.67829900  1
  N  1337  1  0.45828500  0.40693000  0.66639000  1
  N  1342  1  0.49990500  0.36730600  0.60886200  1
  N  1346  1  0.92126000  0.15021200  0.33180300  1
  N  1349  1  0.95969400  0.10338100  0.34288400  1
  N  1354  1  0.00249500  0.14305300  0.39908200  1
  N  1358  1  0.58973100  0.85898300  0.83291000  1
  N  1361  1  0.55254000  0.90692400  0.84374300  1
  N  1366  1  0.51029500  0.86767000  0.90131400  1
  N  1370  1  0.17847500  0.08969300  0.65082100  1
  N  1373  1  0.16673400  0.05229500  0.60325600  1
  N  1378  1  0.10948400  0.01021200  0.64243800  1
  N  1382  1  0.67811500  0.42091300  0.35908900  1
  N  1385  1  0.66666667  0.45838300  0.40660200  1
  N  1390  1  0.60922200  0.50021200  0.36726900  1
  N  1394  1  0.33163900  0.92091000  0.15043600  1
  N  1397  1  0.34331200  0.95863900  0.10313900  1
  N  1402  1  0.40027500  0.00080000  0.14263600  1
  N  1406  1  0.83229500  0.58907400  0.85976400  1
  N  1409  1  0.84312600  0.55085100  0.90681900  1
  N  1414  1  0.89966800  0.50826500  0.86713200  1
  N  1418  1  0.65065300  0.17838800  0.08931200  1
  N  1421  1  0.60334800  0.16680300  0.05155900  1
  N  1426  1  0.64267000  0.10996100  0.00918000  1
  N  1430  1  0.35910300  0.67750000  0.42070000  1
  N  1433  1  0.40691600  0.66608600  0.45786600  1
  N  1438  1  0.36738300  0.60853900  0.49976000  1
  N  1442  1  0.15032400  0.33166700  0.92105000  1
  N  1445  1  0.10331800  0.34303800  0.95915800  1
  N  1450  1  0.14285000  0.39962900  0.00156200  1
  N  1454  1  0.85894000  0.83268500  0.58958400  1
  N  1457  1  0.90697300  0.84393800  0.55271700  1
  N  1462  1  0.86775100  0.90156200  0.51059200  1
  O  897  1  0.51993800  0.88968800  0.35448900  1
  O  909  1  0.98987700  0.11927900  0.85596100  1
  O  921  1  0.48979900  0.39011200  0.15485000  1
  O  933  1  0.02058500  0.62022400  0.65564800  1
  O  945  1  0.35456700  0.52012300  0.88986100  1
  O  957  1  0.85569700  0.98953100  0.11954200  1
  O  969  1  0.15632600  0.48945800  0.38935400  1
  O  981  1  0.65667900  0.02085400  0.62097400  1
  O  993  1  0.88967100  0.35419500  0.52030100  1
  O  1005  1  0.11882800  0.85653900  0.99003200  1
  O  1017  1  0.39029400  0.15496600  0.49042600  1
  O  1029  1  0.62041800  0.65560100  0.02101400  1
  O  1041  1  0.48886400  0.12159800  0.65833000  1
  O  1053  1  0.01998800  0.89117500  0.15330000  1
  O  1065  1  0.52026800  0.62053500  0.85439700  1
  O  1077  1  0.99019100  0.39090900  0.35596300  1
  O  1089  1  0.65444600  0.49074800  0.11926400  1
  O  1101  1  0.15467400  0.02087300  0.88979300  1
  O  1113  1  0.85504500  0.51984700  0.61978600  1
  O  1125  1  0.35480300  0.98939300  0.38995300  1
  O  1137  1  0.12140600  0.65797200  0.48888500  1
  O  1149  1  0.89109100  0.15341200  0.02002600  1
  O  1161  1  0.62109800  0.85306400  0.52067000  1
  O  1173  1  0.39046700  0.35567000  0.98982100  1
  O  1185  1  0.01922600  0.39062900  0.85554800  1
  O  1197  1  0.48951400  0.61942600  0.35566600  1
  O  1209  1  0.98903800  0.88968500  0.65575700  1
  O  1221  1  0.51994300  0.11923100  0.15392300  1
  O  1233  1  0.85593100  0.01927700  0.39085800  1
  O  1245  1  0.35687000  0.49045800  0.61821500  1
  O  1257  1  0.65449000  0.98983800  0.89057900  1
  O  1269  1  0.15425500  0.52020200  0.11937000  1
  O  1281  1  0.39045600  0.85555000  0.01976700  1
  O  1293  1  0.61886000  0.35629200  0.48997400  1
  O  1305  1  0.88933200  0.65640800  0.98913800  1
  O  1317  1  0.11957800  0.15425400  0.51995000  1
  O  1329  1  0.99016000  0.62044100  0.15569300  1
  O  1341  1  0.51989800  0.39144000  0.65309400  1
  O  1353  1  0.02142100  0.12104000  0.35325900  1
  O  1365  1  0.49085600  0.89210600  0.85701400  1
  O  1377  1  0.15455100  0.99060500  0.61949400  1
  O  1389  1  0.65397800  0.52005000  0.39055200  1
  O  1401  1  0.35512100  0.02031300  0.11978200  1
  O  1413  1  0.85432700  0.48909500  0.88984400  1
  O  1425  1  0.62016500  0.15536200  0.98982600  1
  O  1437  1  0.39178600  0.65272900  0.51950100  1
  O  1449  1  0.12064200  0.35404700  0.02083900  1
  O  1461  1  0.89233700  0.85739700  0.49102200  1
