# generated using pymatgen
data_H24C43(N2O)2
_symmetry_space_group_name_H-M   'P 1'
_cell_length_a   31.77820000
_cell_length_b   31.77830000
_cell_length_c   31.77820000
_cell_angle_alpha   89.99900000
_cell_angle_beta   89.99930000
_cell_angle_gamma   89.99880000
_symmetry_Int_Tables_number   1
_chemical_formula_structural   H24C43(N2O)2
_chemical_formula_sum   'H288 C516 N48 O24'
_cell_volume   32091.44320261
_cell_formula_units_Z   12
loop_
 _symmetry_equiv_pos_site_id
 _symmetry_equiv_pos_as_xyz
  1  'x, y, z'
loop_
 _atom_site_type_symbol
 _atom_site_label
 _atom_site_symmetry_multiplicity
 _atom_site_fract_x
 _atom_site_fract_y
 _atom_site_fract_z
 _atom_site_occupancy
  H  25  1  0.07506900  0.38917300  0.68661800  1
  H  26  1  0.06686900  0.42089100  0.62154200  1
  H  27  1  0.95846500  0.44099800  0.51590400  1
  H  28  1  0.92880400  0.41873600  0.45304000  1
  H  29  1  0.97202200  0.29520500  0.47465500  1
  H  30  1  0.00727500  0.28278000  0.64507100  1
  H  31  1  0.09044900  0.32581400  0.55564500  1
  H  32  1  0.12407400  0.23132500  0.46918300  1
  H  33  1  0.05698700  0.20311500  0.47277000  1
  H  34  1  0.91492900  0.32048400  0.57987200  1
  H  35  1  0.94797200  0.17203500  0.57518000  1
  H  36  1  0.88314400  0.19356100  0.60091200  1
  H  39  1  0.00140700  0.42826000  0.57644200  1
  H  40  1  0.04149700  0.41014000  0.54199400  1
  H  42  1  0.98115900  0.20911300  0.50311500  1
  H  43  1  0.01560900  0.18918300  0.54236200  1
  H  68  1  0.97210700  0.69014200  0.70910800  1
  H  69  1  0.97292000  0.66423000  0.64034100  1
  H  70  1  0.02243800  0.67351300  0.49955300  1
  H  71  1  0.02859000  0.70857900  0.43550600  1
  H  72  1  0.00191400  0.82467700  0.49413700  1
  H  73  1  0.99526400  0.81220700  0.66635300  1
  H  74  1  0.91752900  0.78655500  0.55158200  1
  H  75  1  0.87625000  0.91047600  0.57538800  1
  H  76  1  0.94241500  0.92836400  0.60244400  1
  H  77  1  0.08666300  0.77576000  0.55612300  1
  H  78  1  0.07929500  0.88800100  0.65834400  1
  H  79  1  0.14327000  0.85397700  0.64669400  1
  H  82  1  0.02384000  0.68044700  0.57838400  1
  H  83  1  0.97014400  0.68177100  0.56262700  1
  H  85  1  0.01975500  0.91155800  0.60205100  1
  H  86  1  0.99985100  0.88749700  0.64829300  1
  H  111  1  0.65798500  0.69401500  0.03973100  1
  H  112  1  0.62278800  0.63185400  0.05647100  1
  H  113  1  0.62012200  0.50597400  0.14070500  1
  H  114  1  0.64520200  0.43892100  0.15431400  1
  H  115  1  0.76118500  0.46911000  0.09860800  1
  H  116  1  0.77493000  0.63773200  0.06717500  1
  H  117  1  0.72240400  0.56540000  0.99390700  1
  H  118  1  0.80241000  0.47080900  0.94703200  1
  H  119  1  0.83817500  0.46842100  0.01097800  1
  H  120  1  0.73776700  0.58291000  0.16470200  1
  H  121  1  0.88358200  0.55472200  0.13033900  1
  H  122  1  0.86675500  0.58499400  0.19485900  1
  H  125  1  0.63526400  0.57972600  0.11901900  1
  H  126  1  0.62873200  0.55293200  0.07035700  1
  H  128  1  0.83989100  0.49151100  0.08946400  1
  H  129  1  0.86135900  0.53300800  0.05887400  1
  H  154  1  0.35555400  0.69846300  0.13442600  1
  H  155  1  0.38010500  0.63072200  0.12157800  1
  H  156  1  0.38075200  0.51128300  0.02711100  1
  H  157  1  0.34805600  0.44708000  0.01487600  1
  H  158  1  0.23082200  0.49722600  0.05138700  1
  H  159  1  0.24452600  0.67240800  0.06824600  1
  H  160  1  0.26840000  0.54825900  0.13815700  1
  H  161  1  0.14843300  0.57496400  0.18795100  1
  H  162  1  0.12804900  0.60675800  0.12484100  1
  H  163  1  0.26892800  0.56259700  0.97008600  1
  H  164  1  0.15793600  0.66485400  0.98830000  1
  H  165  1  0.18073000  0.64858000  0.92099600  1
  H  168  1  0.37345700  0.58850600  0.04612200  1
  H  169  1  0.36792800  0.55934700  0.09353400  1
  H  171  1  0.14070700  0.61287000  0.04793700  1
  H  172  1  0.16943700  0.65562500  0.06935300  1
  H  197  1  0.36175600  0.03518200  0.41001700  1
  H  198  1  0.42707700  0.05240700  0.43763300  1
  H  199  1  0.54805600  0.14341700  0.42495500  1
  H  200  1  0.61541400  0.14835300  0.39730700  1
  H  201  1  0.57740500  0.08138300  0.28917300  1
  H  202  1  0.40285500  0.06414900  0.28785800  1
  H  203  1  0.49954000  0.99322100  0.32229600  1
  H  204  1  0.54030200  0.96076300  0.20019600  1
  H  205  1  0.52241900  0.02734300  0.17575000  1
  H  206  1  0.48520000  0.17102100  0.32541800  1
  H  207  1  0.41344200  0.13633000  0.19630100  1
  H  208  1  0.39861400  0.20016000  0.22964600  1
  H  211  1  0.47061000  0.12271700  0.41263200  1
  H  212  1  0.49957000  0.07706100  0.42697800  1
  H  214  1  0.49266900  0.09909100  0.18987900  1
  H  215  1  0.44892200  0.06544400  0.19868800  1
  H  240  1  0.36208600  0.13744600  0.71195600  1
  H  241  1  0.42690400  0.12201100  0.68232600  1
  H  242  1  0.55001400  0.03275700  0.67885500  1
  H  243  1  0.61607700  0.02089100  0.70856400  1
  H  244  1  0.57146100  0.05908600  0.82752900  1
  H  245  1  0.40001600  0.08364600  0.82675500  1
  H  246  1  0.51170600  0.15005700  0.78806200  1
  H  247  1  0.51306700  0.19580600  0.91216600  1
  H  248  1  0.49078100  0.13135000  0.93809200  1
  H  249  1  0.48420300  0.98094100  0.78223700  1
  H  250  1  0.41706100  0.00219200  0.91720000  1
  H  251  1  0.41467600  0.93642900  0.88642200  1
  H  254  1  0.47189700  0.04865800  0.69120000  1
  H  255  1  0.50014900  0.09690700  0.69102000  1
  H  257  1  0.47958200  0.05471300  0.92439400  1
  H  258  1  0.43261600  0.08024200  0.90782900  1
  H  283  1  0.63420000  0.09588700  0.44622700  1
  H  284  1  0.61236400  0.06634000  0.50942400  1
  H  285  1  0.64206800  0.96651900  0.62157700  1
  H  286  1  0.66772300  0.96859100  0.69013300  1
  H  287  1  0.76179900  0.05413700  0.65369600  1
  H  288  1  0.76108500  0.07332300  0.47806000  1
  H  289  1  0.73129100  0.96562800  0.53657200  1
  H  290  1  0.85486000  0.93301200  0.50135600  1
  H  291  1  0.87962400  0.99705800  0.52587600  1
  H  292  1  0.72657500  0.13754600  0.56859100  1
  H  293  1  0.86155300  0.10661300  0.63178500  1
  H  294  1  0.82980000  0.17132300  0.64472100  1
  H  297  1  0.62810600  0.03093400  0.57482500  1
  H  298  1  0.65220500  0.99240900  0.54240600  1
  H  300  1  0.85331300  0.03177200  0.60220500  1
  H  301  1  0.86711900  0.06513400  0.55950000  1
  H  326  1  0.31137200  0.97905400  0.41953300  1
  H  327  1  0.34619700  0.97944800  0.48363600  1
  H  328  1  0.37429700  0.04421000  0.61784500  1
  H  329  1  0.35000200  0.06350000  0.68430200  1
  H  330  1  0.22566000  0.07172100  0.63903500  1
  H  331  1  0.21858500  0.06081600  0.46803400  1
  H  332  1  0.26338500  0.13542700  0.54574500  1
  H  333  1  0.14071000  0.18427200  0.53113400  1
  H  334  1  0.11176600  0.11842900  0.54483500  1
  H  335  1  0.26118900  0.96169500  0.55218000  1
  H  336  1  0.12144400  0.98244700  0.60814300  1
  H  337  1  0.15030700  0.91508200  0.60519800  1
  H  340  1  0.34157400  0.99300000  0.56108900  1
  H  341  1  0.35989800  0.04146400  0.54003700  1
  H  343  1  0.13484700  0.06160700  0.60221700  1
  H  344  1  0.12260300  0.04135600  0.55151600  1
  H  369  1  0.36510400  0.39570400  0.96353700  1
  H  370  1  0.43250800  0.42418100  0.96338900  1
  H  371  1  0.55795500  0.45156900  0.04688500  1
  H  372  1  0.61914400  0.42645200  0.07924600  1
  H  373  1  0.56987700  0.30358400  0.08212800  1
  H  374  1  0.40249900  0.30464900  0.05228100  1
  H  375  1  0.48004500  0.34295100  0.13197700  1
  H  376  1  0.43917000  0.22483300  0.17549500  1
  H  377  1  0.45268000  0.19453400  0.11023300  1
  H  378  1  0.51344400  0.33966000  0.96138200  1
  H  379  1  0.55572100  0.19854400  0.99694100  1
  H  380  1  0.57796400  0.22814600  0.93375600  1
  H  383  1  0.51040700  0.41594400  0.98607500  1
  H  384  1  0.48220800  0.43869700  0.02855000  1
  H  386  1  0.51879500  0.20486100  0.06420800  1
  H  387  1  0.47348800  0.20721500  0.03160900  1
  H  412  1  0.39455900  0.71713700  0.07343600  1
  H  413  1  0.45850900  0.69083500  0.04994400  1
  H  414  1  0.58460900  0.71411500  0.96898100  1
  H  415  1  0.65305200  0.73887600  0.97263800  1
  H  416  1  0.61558200  0.83462500  0.05584000  1
  H  417  1  0.44153800  0.84118600  0.06959600  1
  H  418  1  0.49824500  0.80556300  0.96512000  1
  H  419  1  0.49215400  0.93064600  0.92218500  1
  H  420  1  0.52078900  0.95471800  0.98554600  1
  H  421  1  0.51038300  0.80601500  0.13678300  1
  H  422  1  0.59504800  0.93072100  0.11560400  1
  H  423  1  0.58511600  0.90515600  0.18340200  1
  H  426  1  0.53315500  0.70281300  0.03266000  1
  H  427  1  0.50696500  0.72481600  0.98842500  1
  H  429  1  0.58577600  0.91338400  0.03305100  1
  H  430  1  0.54392900  0.94215600  0.05625400  1
  H  455  1  0.91458400  0.68811000  0.76445400  1
  H  456  1  0.91216600  0.62501400  0.72800200  1
  H  457  1  0.99126200  0.50010000  0.68678500  1
  H  458  1  0.01383800  0.43266600  0.70500200  1
  H  459  1  0.00829800  0.46388600  0.83394900  1
  H  460  1  0.00151300  0.63658600  0.85047600  1
  H  461  1  0.07611900  0.55316000  0.79859100  1
  H  462  1  0.12745400  0.59040000  0.91526500  1
  H  463  1  0.06320800  0.57849000  0.94830000  1
  H  464  1  0.90145900  0.54862400  0.80972400  1
  H  465  1  0.93164200  0.50402400  0.95186900  1
  H  466  1  0.86267000  0.50425900  0.92744300  1
  H  469  1  0.93081800  0.54705400  0.72635900  1
  H  470  1  0.97636100  0.57361600  0.70779000  1
  H  472  1  0.00948300  0.51386800  0.93521600  1
  H  473  1  0.98656800  0.56445800  0.94188700  1
  H  498  1  0.09412000  0.70494700  0.38605700  1
  H  499  1  0.10493900  0.63706300  0.41032500  1
  H  500  1  0.03011300  0.51107600  0.44796100  1
  H  501  1  0.99600600  0.44863900  0.42971600  1
  H  502  1  0.97837800  0.49231000  0.30565700  1
  H  503  1  0.00400300  0.66136100  0.29970900  1
  H  504  1  0.92871200  0.57904200  0.34095400  1
  H  505  1  0.88716800  0.64599600  0.23404500  1
  H  506  1  0.95053400  0.63293600  0.20012800  1
  H  507  1  0.09782500  0.54205000  0.32876000  1
  H  508  1  0.06054300  0.52783600  0.18235200  1
  H  509  1  0.12405200  0.50069300  0.20599700  1
  H  512  1  0.08584400  0.55735200  0.40402500  1
  H  513  1  0.04551400  0.58551300  0.43037300  1
  H  515  1  0.99430000  0.56356700  0.19569300  1
  H  516  1  0.02767100  0.60677100  0.20778300  1
  H  527  1  0.10580100  0.37940100  0.35700200  1
  H  528  1  0.89014700  0.37051900  0.39975500  1
  H  529  1  0.90679400  0.43222200  0.36460200  1
  H  531  1  0.02178100  0.30557600  0.42128500  1
  H  542  1  0.89280900  0.68612900  0.35240200  1
  H  543  1  0.06976000  0.80480100  0.40615200  1
  H  544  1  0.08310400  0.76659400  0.34483700  1
  H  546  1  0.92744700  0.77900400  0.43537400  1
  H  557  1  0.11220900  0.66313700  0.78712400  1
  H  558  1  0.93242800  0.78474800  0.75303500  1
  H  559  1  0.92557200  0.74627700  0.81528800  1
  H  561  1  0.07053400  0.75630400  0.70801000  1
  H  572  1  0.87597600  0.38658700  0.75181000  1
  H  573  1  0.08913800  0.33302300  0.74124400  1
  H  574  1  0.07923700  0.39132700  0.78447100  1
  H  576  1  0.95247500  0.30358800  0.68942500  1
  H  587  1  0.68507400  0.35657000  0.96123100  1
  H  588  1  0.69397400  0.38227100  0.17927300  1
  H  589  1  0.63308600  0.34658500  0.16028100  1
  H  591  1  0.75786700  0.41640200  0.04958600  1
  H  602  1  0.37187600  0.36745300  0.16216200  1
  H  603  1  0.26031800  0.40889400  0.97731400  1
  H  604  1  0.30310500  0.35037900  0.96793300  1
  H  606  1  0.27733100  0.44478600  0.11980200  1
  H  617  1  0.35002100  0.77610300  0.93828400  1
  H  618  1  0.30505400  0.75700700  0.15293300  1
  H  619  1  0.36586900  0.79654300  0.14265000  1
  H  621  1  0.26565100  0.71623400  0.01511900  1
  H  632  1  0.64534900  0.79033400  0.17008500  1
  H  633  1  0.75222700  0.71918100  0.99160100  1
  H  634  1  0.71577100  0.78075500  0.97590700  1
  H  636  1  0.73258000  0.70083800  0.13682400  1
  H  647  1  0.67183600  0.94889400  0.40699300  1
  H  648  1  0.67347000  0.15933600  0.34235100  1
  H  649  1  0.71538700  0.15015300  0.40206200  1
  H  651  1  0.61538400  0.02414300  0.31880000  1
  H  662  1  0.69987400  0.16521200  0.68024600  1
  H  663  1  0.65730900  0.98436400  0.79804700  1
  H  664  1  0.71417000  0.97219800  0.75284600  1
  H  666  1  0.62261300  0.12628800  0.77634000  1
  H  677  1  0.29510600  0.94199500  0.74550700  1
  H  678  1  0.30671400  0.16080400  0.76501800  1
  H  679  1  0.26707100  0.14232400  0.70631100  1
  H  681  1  0.35197700  0.03030600  0.82039200  1
  H  692  1  0.27775500  0.17466700  0.43571700  1
  H  693  1  0.31898600  0.99214300  0.32061900  1
  H  694  1  0.25910800  0.98287600  0.36168200  1
  H  696  1  0.35528400  0.13423100  0.34067000  1
  H  707  1  0.60134300  0.93517400  0.80596700  1
  H  708  1  0.42415800  0.84175400  0.89594100  1
  H  709  1  0.40545100  0.87917400  0.83594000  1
  H  711  1  0.57186200  0.85080400  0.89932700  1
  H  722  1  0.38393600  0.24816100  0.84758400  1
  H  723  1  0.60004600  0.27822300  0.87734000  1
  H  724  1  0.58766700  0.22025300  0.83446100  1
  H  726  1  0.46309600  0.32636000  0.91252700  1
  H  737  1  0.59384500  0.20426300  0.25495700  1
  H  738  1  0.40305400  0.30793300  0.21853100  1
  H  739  1  0.39687300  0.26350200  0.27677500  1
  H  741  1  0.54519900  0.29630000  0.17839000  1
  H  752  1  0.38258400  0.94052600  0.21596300  1
  H  753  1  0.58135200  0.84946600  0.24182100  1
  H  754  1  0.57418600  0.90877600  0.28456100  1
  H  756  1  0.45295400  0.84457300  0.16630500  1
  H  767  1  0.09704600  0.85813800  0.45396500  1
  H  768  1  0.24205500  0.86703500  0.61886400  1
  H  769  1  0.20149900  0.80620500  0.62469500  1
  H  771  1  0.19945500  0.92751000  0.49069100  1
  H  782  1  0.79874000  0.84783900  0.67940200  1
  H  783  1  0.80462900  0.88103200  0.46208700  1
  H  784  1  0.86062900  0.83823700  0.48303200  1
  H  786  1  0.73510400  0.91442500  0.58906100  1
  H  797  1  0.85101400  0.24039900  0.44995300  1
  H  798  1  0.77455400  0.22869800  0.65603400  1
  H  799  1  0.83517900  0.26961100  0.65328400  1
  H  801  1  0.75667500  0.18212300  0.51585000  1
  H  812  1  0.13004400  0.27398000  0.66620800  1
  H  813  1  0.22794300  0.21864500  0.47724800  1
  H  814  1  0.18521900  0.27713100  0.46695200  1
  H  816  1  0.22078600  0.19281000  0.62259000  1
  H  827  1  0.20099800  0.45281600  0.95587500  1
  H  828  1  0.16616400  0.62151000  0.81979100  1
  H  829  1  0.22568200  0.63449500  0.86036600  1
  H  831  1  0.12724400  0.48334900  0.85437800  1
  H  842  1  0.22257400  0.67537000  0.26122900  1
  H  843  1  0.17507000  0.46062000  0.25403000  1
  H  844  1  0.21666900  0.47953300  0.19697400  1
  H  846  1  0.15247500  0.58884200  0.32630200  1
  H  857  1  0.80957500  0.45186500  0.24127000  1
  H  858  1  0.83620200  0.66416900  0.29278000  1
  H  859  1  0.79190900  0.65648400  0.23466000  1
  H  861  1  0.88190500  0.52444300  0.31976000  1
  H  872  1  0.80821700  0.66544500  0.96760300  1
  H  873  1  0.80759200  0.48385800  0.84337900  1
  H  874  1  0.74965900  0.48364100  0.88848900  1
  H  876  1  0.87260300  0.61479500  0.86778600  1
  C  1  1  0.96498200  0.27729500  0.56895300  1
  C  2  1  0.97154300  0.23343700  0.56344900  1
  C  3  1  0.03326600  0.24688600  0.51720000  1
  C  4  1  0.03968800  0.28594800  0.53780200  1
  C  5  1  0.08226700  0.30104000  0.53699700  1
  C  6  1  0.11533800  0.27987800  0.51496300  1
  C  7  1  0.10258100  0.24825200  0.48612200  1
  C  8  1  0.06231100  0.23112400  0.48785600  1
  C  9  1  0.94340200  0.20361000  0.57995700  1
  C  10  1  0.90459800  0.21668600  0.59532300  1
  C  11  1  0.89181900  0.25915500  0.59193400  1
  C  12  1  0.92333700  0.28949100  0.58157800  1
  C  13  1  0.01609200  0.32982700  0.59849200  1
  C  14  1  0.02986000  0.37221100  0.59477200  1
  C  15  1  0.98281200  0.38145900  0.53376800  1
  C  16  1  0.98381400  0.33776900  0.52477400  1
  C  17  1  0.95900500  0.40944200  0.50927000  1
  C  18  1  0.94171800  0.39578200  0.47147400  1
  C  19  1  0.95114700  0.35526400  0.45523600  1
  C  20  1  0.96832000  0.32562000  0.48425300  1
  C  21  1  0.02012000  0.31171500  0.63961400  1
  C  22  1  0.03800900  0.33424300  0.67433300  1
  C  23  1  0.06059100  0.37140300  0.66405500  1
  C  24  1  0.05604400  0.39071000  0.62509800  1
  C  37  1  0.00119600  0.30749700  0.55809300  1
  C  38  1  0.01479600  0.40026600  0.56135900  1
  C  41  1  0.00011100  0.21766000  0.53058700  1
  C  44  1  0.04380600  0.81554200  0.58877100  1
  C  45  1  0.04424700  0.85235300  0.61407500  1
  C  46  1  0.97060100  0.86852400  0.59251300  1
  C  47  1  0.96480100  0.82707500  0.57640400  1
  C  48  1  0.92353000  0.81656200  0.56152300  1
  C  49  1  0.89006400  0.84634800  0.56111400  1
  C  50  1  0.89905700  0.88779400  0.57463900  1
  C  51  1  0.93824400  0.89861100  0.59070000  1
  C  52  1  0.07972000  0.86275800  0.63828300  1
  C  53  1  0.11765500  0.84191300  0.63140700  1
  C  54  1  0.12222800  0.81486000  0.59622900  1
  C  55  1  0.08425300  0.79826500  0.57893100  1
  C  56  1  0.99150500  0.76701400  0.61662000  1
  C  57  1  0.98641500  0.72292700  0.61102500  1
  C  58  1  0.00799000  0.72787700  0.53586100  1
  C  59  1  0.00479300  0.77252400  0.53616600  1
  C  60  1  0.01949200  0.70565400  0.49944000  1
  C  61  1  0.02344800  0.72670700  0.46148300  1
  C  62  1  0.01380300  0.77001700  0.45794600  1
  C  63  1  0.00707500  0.79298200  0.49596200  1
  C  64  1  0.98973500  0.78152300  0.65943900  1
  C  65  1  0.98396800  0.75409800  0.69416400  1
  C  66  1  0.97472000  0.71158500  0.68546900  1
  C  67  1  0.97579700  0.69608400  0.64463000  1
  C  80  1  0.00108600  0.79549200  0.57856600  1
  C  81  1  0.99709100  0.70122400  0.57183800  1
  C  84  1  0.00864400  0.88181400  0.61546600  1
  C  87  1  0.77831700  0.56321800  0.11517500  1
  C  88  1  0.82090300  0.55191100  0.10745800  1
  C  89  1  0.80113200  0.51493400  0.04131800  1
  C  90  1  0.76328600  0.53855200  0.03968300  1
  C  91  1  0.74536700  0.54340600  0.99858300  1
  C  92  1  0.76171200  0.52197400  0.96261500  1
  C  93  1  0.79022800  0.48868600  0.97081300  1
  C  94  1  0.81190900  0.48701300  0.00885200  1
  C  95  1  0.85297600  0.56347100  0.13556100  1
  C  96  1  0.84285300  0.58237300  0.17371100  1
  C  97  1  0.80046700  0.58747800  0.18639100  1
  C  98  1  0.76857200  0.57937600  0.15609600  1
  C  99  1  0.72235900  0.59652200  0.07273600  1
  C  100  1  0.67763700  0.59704200  0.07240800  1
  C  101  1  0.67488000  0.52814600  0.10954200  1
  C  102  1  0.71747400  0.51968300  0.09926100  1
  C  103  1  0.65075300  0.49944400  0.13295400  1
  C  104  1  0.66629500  0.45938800  0.14130400  1
  C  105  1  0.70515200  0.44552500  0.12420400  1
  C  106  1  0.73149500  0.47747800  0.10700800  1
  C  107  1  0.74302300  0.63558000  0.06370700  1
  C  108  1  0.71995400  0.67259700  0.05341500  1
  C  109  1  0.67617700  0.66847500  0.04649900  1
  C  110  1  0.65505200  0.63161700  0.05664100  1
  C  123  1  0.74522500  0.55497100  0.08138000  1
  C  124  1  0.65201200  0.56460200  0.09293400  1
  C  127  1  0.83274300  0.52163900  0.07438300  1
  C  130  1  0.23519600  0.59680700  0.01688100  1
  C  131  1  0.19894800  0.62280400  0.02005200  1
  C  132  1  0.18569000  0.59603300  0.09263400  1
  C  133  1  0.22632700  0.57722700  0.09470100  1
  C  134  1  0.23835400  0.55908100  0.13421700  1
  C  135  1  0.21062400  0.55812100  0.16930500  1
  C  136  1  0.16937900  0.57386000  0.16361200  1
  C  137  1  0.15716000  0.59293000  0.12626500  1
  C  138  1  0.18360500  0.64553200  0.98539200  1
  C  139  1  0.19742300  0.63536900  0.94514100  1
  C  140  1  0.22547700  0.60135400  0.93829400  1
  C  141  1  0.24661400  0.58524200  0.97467100  1
  C  142  1  0.28522300  0.61952500  0.07373400  1
  C  143  1  0.32697800  0.61033200  0.08655400  1
  C  144  1  0.32539900  0.54330600  0.04659500  1
  C  145  1  0.28084000  0.54177800  0.05005500  1
  C  146  1  0.34858800  0.50991500  0.02938700  1
  C  147  1  0.32887700  0.47170700  0.02198000  1
  C  148  1  0.28639800  0.46498300  0.03344200  1
  C  149  1  0.26203200  0.50107700  0.04465000  1
  C  150  1  0.27268300  0.66255500  0.07956200  1
  C  151  1  0.29906600  0.69371700  0.09824400  1
  C  152  1  0.33527900  0.67853800  0.11937700  1
  C  153  1  0.35020800  0.63808000  0.11196400  1
  C  166  1  0.25695900  0.58314900  0.05811600  1
  C  167  1  0.35062700  0.57526700  0.06828900  1
  C  170  1  0.17209600  0.62331300  0.05773700  1
  C  173  1  0.47272300  0.12052700  0.28332100  1
  C  174  1  0.45663700  0.11437700  0.24219400  1
  C  175  1  0.50186700  0.05112200  0.23461500  1
  C  176  1  0.49950600  0.04405900  0.27870100  1
  C  177  1  0.50686300  0.00157900  0.29211800  1
  C  178  1  0.52029400  0.96964300  0.26343500  1
  C  179  1  0.53228400  0.98241900  0.22248800  1
  C  180  1  0.52132100  0.02208300  0.20755600  1
  C  181  1  0.42652900  0.14191900  0.22523200  1
  C  182  1  0.41763600  0.17974600  0.24560800  1
  C  183  1  0.44491200  0.19407800  0.27790600  1
  C  184  1  0.46817900  0.16231600  0.29962300  1
  C  185  1  0.45076100  0.06855500  0.33466000  1
  C  186  1  0.45520700  0.06841400  0.37914000  1
  C  187  1  0.52221200  0.10834800  0.37432600  1
  C  188  1  0.52792100  0.09428300  0.33230900  1
  C  189  1  0.55303500  0.13214400  0.39513500  1
  C  190  1  0.59328300  0.13480900  0.37831600  1
  C  191  1  0.60466500  0.11117500  0.34220900  1
  C  192  1  0.57056400  0.09518200  0.31737100  1
  C  193  1  0.40936500  0.05952500  0.31896100  1
  C  194  1  0.37542300  0.04869600  0.34609600  1
  C  195  1  0.38501100  0.04095900  0.38882600  1
  C  196  1  0.42395900  0.05163400  0.40552300  1
  C  209  1  0.48839400  0.08153000  0.30726000  1
  C  210  1  0.48665000  0.09479200  0.40035600  1
  C  213  1  0.47462500  0.08248300  0.21408000  1
  C  216  1  0.47025600  0.02758900  0.82804200  1
  C  217  1  0.45359000  0.03119300  0.86935300  1
  C  218  1  0.48744000  0.10107800  0.87853900  1
  C  219  1  0.49518500  0.10471700  0.83461600  1
  C  220  1  0.50905600  0.14498600  0.81972500  1
  C  221  1  0.51609500  0.17931400  0.84754600  1
  C  222  1  0.51175200  0.17179400  0.89115100  1
  C  223  1  0.49770800  0.13354200  0.90664300  1
  C  224  1  0.42967700  0.99892100  0.88767400  1
  C  225  1  0.42818900  0.95962800  0.86871800  1
  C  226  1  0.45181600  0.95069100  0.83190000  1
  C  227  1  0.46932200  0.98611700  0.81024400  1
  C  228  1  0.44736400  0.08353200  0.77961900  1
  C  229  1  0.45266300  0.09211300  0.73619000  1
  C  230  1  0.52077600  0.05346200  0.73528700  1
  C  231  1  0.52456400  0.05755800  0.77969100  1
  C  232  1  0.55311600  0.03586000  0.71081700  1
  C  233  1  0.59233500  0.02871400  0.72869100  1
  C  234  1  0.60094100  0.04058100  0.77070700  1
  C  235  1  0.56605500  0.05197300  0.79663400  1
  C  236  1  0.40632000  0.09176100  0.79640100  1
  C  237  1  0.37264900  0.10812700  0.77166700  1
  C  238  1  0.38400600  0.12496100  0.73188200  1
  C  239  1  0.42272200  0.11555800  0.71365500  1
  C  252  1  0.48496100  0.06782500  0.80548200  1
  C  253  1  0.48628400  0.07267900  0.71128300  1
  C  256  1  0.46252700  0.06693000  0.89700700  1
  C  259  1  0.77148700  0.08880300  0.57745800  1
  C  260  1  0.81344200  0.08327300  0.59178000  1
  C  261  1  0.82052700  0.02019500  0.54661300  1
  C  262  1  0.77628100  0.01390800  0.54702900  1
  C  263  1  0.76229400  0.97320500  0.53348800  1
  C  264  1  0.79053600  0.94118300  0.51946600  1
  C  265  1  0.83251900  0.95390400  0.51131900  1
  C  266  1  0.84771800  0.99229200  0.52575600  1
  C  267  1  0.83208400  0.11186100  0.61975800  1
  C  268  1  0.81288100  0.15044500  0.62709000  1
  C  269  1  0.77771500  0.16336600  0.60283700  1
  C  270  1  0.75473100  0.13042200  0.58234900  1
  C  271  1  0.71747800  0.06046800  0.52722000  1
  C  272  1  0.67361300  0.05408400  0.53309800  1
  C  273  1  0.68619700  0.00977000  0.59627600  1
  C  274  1  0.72484200  0.03124100  0.60260100  1
  C  275  1  0.66947000  0.98266100  0.62695800  1
  C  276  1  0.68488000  0.98437200  0.66793500  1
  C  277  1  0.71555400  0.01459500  0.67945300  1
  C  278  1  0.73784800  0.03435000  0.64577900  1
  C  279  1  0.72997600  0.07448900  0.48614700  1
  C  280  1  0.69984800  0.08619800  0.45488700  1
  C  281  1  0.65726000  0.08913000  0.46753100  1
  C  282  1  0.64395100  0.07128700  0.50519500  1
  C  295  1  0.74743900  0.04915600  0.56343000  1
  C  296  1  0.65809200  0.02063000  0.56122400  1
  C  299  1  0.84078100  0.04984900  0.57568400  1
  C  302  1  0.21619800  0.00963400  0.56660200  1
  C  303  1  0.17391500  0.01344700  0.58056100  1
  C  304  1  0.17012900  0.08671800  0.55305500  1
  C  305  1  0.21470100  0.08959000  0.55010300  1
  C  306  1  0.23156500  0.13105600  0.54399800  1
  C  307  1  0.20505900  0.16696300  0.53853200  1
  C  308  1  0.16131500  0.15987300  0.53448900  1
  C  309  1  0.14389100  0.12077000  0.54281500  1
  C  310  1  0.15212300  0.97940300  0.59861800  1
  C  311  1  0.16961000  0.93935000  0.59745900  1
  C  312  1  0.20867700  0.93195200  0.57772000  1
  C  313  1  0.23253400  0.96751300  0.56515100  1
  C  314  1  0.26324400  0.03962400  0.51312200  1
  C  315  1  0.30361100  0.02048300  0.51472000  1
  C  316  1  0.31459600  0.04635700  0.58771700  1
  C  317  1  0.27104400  0.05574700  0.59231100  1
  C  318  1  0.34313400  0.05196500  0.62099800  1
  C  319  1  0.32852600  0.06360700  0.66044600  1
  C  320  1  0.28521900  0.06999900  0.66837000  1
  C  321  1  0.25705900  0.06723700  0.63367000  1
  C  322  1  0.24477300  0.04260900  0.47208100  1
  C  323  1  0.26374800  0.02393500  0.43576400  1
  C  324  1  0.29659800  0.99472500  0.44344200  1
  C  325  1  0.31824700  0.99541600  0.48143700  1
  C  338  1  0.24120300  0.04945200  0.55502500  1
  C  339  1  0.33192300  0.02449900  0.55089000  1
  C  342  1  0.14837800  0.05088400  0.57237600  1
  C  345  1  0.51050700  0.29408700  0.01027200  1
  C  346  1  0.52005800  0.25114700  0.01747000  1
  C  347  1  0.47521500  0.25049500  0.08154600  1
  C  348  1  0.47956400  0.29483800  0.08537800  1
  C  349  1  0.47246400  0.31219700  0.12638700  1
  C  350  1  0.45933200  0.28670800  0.16087300  1
  C  351  1  0.44740900  0.24478400  0.15192000  1
  C  352  1  0.45554400  0.22654400  0.11303000  1
  C  353  1  0.54816900  0.22935900  0.99117600  1
  C  354  1  0.56142100  0.24745600  0.95347100  1
  C  355  1  0.54289600  0.28529300  0.93869300  1
  C  356  1  0.52206700  0.31003100  0.96969900  1
  C  357  1  0.45249300  0.34283000  0.02928200  1
  C  358  1  0.45832400  0.38152000  0.00775200  1
  C  359  1  0.52617800  0.39278700  0.04568200  1
  C  360  1  0.52774500  0.34978300  0.05798200  1
  C  361  1  0.55866200  0.42078300  0.05647500  1
  C  362  1  0.59479700  0.40579700  0.07607700  1
  C  363  1  0.60027200  0.36246800  0.08465900  1
  C  364  1  0.56601900  0.33505700  0.07660100  1
  C  365  1  0.40971800  0.32869600  0.03223500  1
  C  366  1  0.37576400  0.34967600  0.01143800  1
  C  367  1  0.38729200  0.37976200  0.98052400  1
  C  368  1  0.42754300  0.39706800  0.98013000  1
  C  381  1  0.49178000  0.32033300  0.04628100  1
  C  382  1  0.49459400  0.40911100  0.01590200  1
  C  385  1  0.49668900  0.22620700  0.04854400  1
  C  388  1  0.53640800  0.84542900  0.08925400  1
  C  389  1  0.55686500  0.88502500  0.08530800  1
  C  390  1  0.52524100  0.89466200  0.01465600  1
  C  391  1  0.51572500  0.85106600  0.01125600  1
  C  392  1  0.50121300  0.83701500  0.97086000  1
  C  393  1  0.49349700  0.86532200  0.93709100  1
  C  394  1  0.49649300  0.90891100  0.94549000  1
  C  395  1  0.51356100  0.92338800  0.98307600  1
  C  396  1  0.57869100  0.90314600  0.11915900  1
  C  397  1  0.57217400  0.88785500  0.15958600  1
  C  398  1  0.54253700  0.85551000  0.16758600  1
  C  399  1  0.52855300  0.83202000  0.13172100  1
  C  400  1  0.48677000  0.79390100  0.05513600  1
  C  401  1  0.48939800  0.75005400  0.04645900  1
  C  402  1  0.55856200  0.75889200  0.01112700  1
  C  403  1  0.56490900  0.79714500  0.03326900  1
  C  404  1  0.58992100  0.74139700  0.98537600  1
  C  405  1  0.63084800  0.75669600  0.98762300  1
  C  406  1  0.64207900  0.78781300  0.01760000  1
  C  407  1  0.60800800  0.81022500  0.03656400  1
  C  408  1  0.44615100  0.80942800  0.06728800  1
  C  409  1  0.41123700  0.78195700  0.07370900  1
  C  410  1  0.41863900  0.73815700  0.07120100  1
  C  411  1  0.45664900  0.72230600  0.05684100  1
  C  424  1  0.52571900  0.82165900  0.04822000  1
  C  425  1  0.52174800  0.73221100  0.01866800  1
  C  428  1  0.55438900  0.91062500  0.04691500  1
  C  431  1  0.95220900  0.53781300  0.85250800  1
  C  432  1  0.95883200  0.52770400  0.89554700  1
  C  433  1  0.03042600  0.55945600  0.89320600  1
  C  434  1  0.03163800  0.55616200  0.84864100  1
  C  435  1  0.07248000  0.56017100  0.82976300  1
  C  436  1  0.10894200  0.57054800  0.85395000  1
  C  437  1  0.10262900  0.58319100  0.89618900  1
  C  438  1  0.06454000  0.57562300  0.91619000  1
  C  439  1  0.92661000  0.51077500  0.92071500  1
  C  440  1  0.88547200  0.51037600  0.90590000  1
  C  441  1  0.87529000  0.52741400  0.86620000  1
  C  442  1  0.90911500  0.53763500  0.83880700  1
  C  443  1  0.97771500  0.59301400  0.80567100  1
  C  444  1  0.95605300  0.59283600  0.76663800  1
  C  445  1  0.98750500  0.52341100  0.74931800  1
  C  446  1  0.99544900  0.51498000  0.79256800  1
  C  447  1  0.99746500  0.49400100  0.71785000  1
  C  448  1  0.01122900  0.45400400  0.72888300  1
  C  449  1  0.01267600  0.44114500  0.77146900  1
  C  450  1  0.00658700  0.47250000  0.80300300  1
  C  451  1  0.98138800  0.63324000  0.82565000  1
  C  452  1  0.96219100  0.67018400  0.80869200  1
  C  453  1  0.93049400  0.66358900  0.77791600  1
  C  454  1  0.92921300  0.62605500  0.75536300  1
  C  467  1  0.98990800  0.55037500  0.82486400  1
  C  468  1  0.96171200  0.55927600  0.73550700  1
  C  471  1  0.99651400  0.54109900  0.91853200  1
  C  474  1  0.04861500  0.55398500  0.28522500  1
  C  475  1  0.04045000  0.55186800  0.24137100  1
  C  476  1  0.97733700  0.59664000  0.24932300  1
  C  477  1  0.97413100  0.58455800  0.29224300  1
  C  478  1  0.93374800  0.59053200  0.31136200  1
  C  479  1  0.89927400  0.60910800  0.28913800  1
  C  480  1  0.90947000  0.63051600  0.25127800  1
  C  481  1  0.94719700  0.62285000  0.23059100  1
  C  482  1  0.06653400  0.52893100  0.21402700  1
  C  483  1  0.10459500  0.51289000  0.22851300  1
  C  484  1  0.11921400  0.52162200  0.26977300  1
  C  485  1  0.08909300  0.53887300  0.29817100  1
  C  486  1  0.03360800  0.61247100  0.33481700  1
  C  487  1  0.05979800  0.60804200  0.37070700  1
  C  488  1  0.02413500  0.54015600  0.38801100  1
  C  489  1  0.00674600  0.53695100  0.34681600  1
  C  490  1  0.01725900  0.50883300  0.41845300  1
  C  491  1  0.99679000  0.47183400  0.40750900  1
  C  492  1  0.98373700  0.46411600  0.36570600  1
  C  493  1  0.98755600  0.49753600  0.33605400  1
  C  494  1  0.02619400  0.65521100  0.32198800  1
  C  495  1  0.04516900  0.69065000  0.34212400  1
  C  496  1  0.07898400  0.68164200  0.36985100  1
  C  497  1  0.08578400  0.64098800  0.38466300  1
  C  510  1  0.01499500  0.57219200  0.31498600  1
  C  511  1  0.05517800  0.57248600  0.39991900  1
  C  514  1  0.01015300  0.58037600  0.22130300  1
  C  517  1  0.95246500  0.35111400  0.40973000  1
  C  518  1  0.99368300  0.35537100  0.39227500  1
  C  519  1  0.00279400  0.39038200  0.36555900  1
  C  520  1  0.97175000  0.42137700  0.35698300  1
  C  521  1  0.92971600  0.40967800  0.36558100  1
  C  522  1  0.91983500  0.37205700  0.38730000  1
  C  524  1  0.07579300  0.37248500  0.36620000  1
  C  525  1  0.06712000  0.33747000  0.39161100  1
  C  532  1  0.00721400  0.78480500  0.41553300  1
  C  533  1  0.97409000  0.76313200  0.39439900  1
  C  534  1  0.98428500  0.73498100  0.36075000  1
  C  535  1  0.02616800  0.73232900  0.34509500  1
  C  536  1  0.05260200  0.76704700  0.35519900  1
  C  537  1  0.04451400  0.79074900  0.39197000  1
  C  539  1  0.91433800  0.70716700  0.36359500  1
  C  540  1  0.90428900  0.73483400  0.39649800  1
  C  547  1  0.99359200  0.76416000  0.73717500  1
  C  548  1  0.02837300  0.74147900  0.75402300  1
  C  549  1  0.02167300  0.71412100  0.78905000  1
  C  550  1  0.98165400  0.71152900  0.80894100  1
  C  551  1  0.95493600  0.74683100  0.80194200  1
  C  552  1  0.95895800  0.77037300  0.76438500  1
  C  554  1  0.09011900  0.68465900  0.77838500  1
  C  555  1  0.09691600  0.71176000  0.74422000  1
  C  562  1  0.02674300  0.32927100  0.71850200  1
  C  563  1  0.98498300  0.34138100  0.72975800  1
  C  564  1  0.97878500  0.37409500  0.76005200  1
  C  565  1  0.01334000  0.39628400  0.77764900  1
  C  566  1  0.05278200  0.37586700  0.77445200  1
  C  567  1  0.05849400  0.34020500  0.74828000  1
  C  569  1  0.90499300  0.37399900  0.74611200  1
  C  570  1  0.91051600  0.34138600  0.71694100  1
  C  577  1  0.71131400  0.40058600  0.11782200  1
  C  578  1  0.70761200  0.38625300  0.07536500  1
  C  579  1  0.67302700  0.35985900  0.06423100  1
  C  580  1  0.64216600  0.34906200  0.09443600  1
  C  581  1  0.65469000  0.35217900  0.13700400  1
  C  582  1  0.69203500  0.37379100  0.14822200  1
  C  584  1  0.69142900  0.36444000  0.99173900  1
  C  585  1  0.72653400  0.38900400  0.00226700  1
  C  592  1  0.27575500  0.42146300  0.04075800  1
  C  593  1  0.29739200  0.40304000  0.07547800  1
  C  594  1  0.32736600  0.37021600  0.06818000  1
  C  595  1  0.33294200  0.35275100  0.02738500  1
  C  596  1  0.30011900  0.36118400  0.99816200  1
  C  597  1  0.27344300  0.39637400  0.00391300  1
  C  599  1  0.35152600  0.37695100  0.13917800  1
  C  600  1  0.32205300  0.40900500  0.14648500  1
  C  607  1  0.29716500  0.73872200  0.08967600  1
  C  608  1  0.30807900  0.75136000  0.04797100  1
  C  609  1  0.34258100  0.77961800  0.04191500  1
  C  610  1  0.36754700  0.79346900  0.07636100  1
  C  611  1  0.34843300  0.78974300  0.11641600  1
  C  612  1  0.31150500  0.76560500  0.12254400  1
  C  614  1  0.33825800  0.76975600  0.96751200  1
  C  615  1  0.30364000  0.74294600  0.97294900  1
  C  622  1  0.73533400  0.71511600  0.05560400  1
  C  623  1  0.71605200  0.73921700  0.08820800  1
  C  624  1  0.68903000  0.77343600  0.07716700  1
  C  625  1  0.68463000  0.78610000  0.03450300  1
  C  626  1  0.71747800  0.77284200  0.00711100  1
  C  627  1  0.74030600  0.73579700  0.01648700  1
  C  629  1  0.66475900  0.77668600  0.14840300  1
  C  630  1  0.69135500  0.74317200  0.15931100  1
  C  637  1  0.64856300  0.09789900  0.34063300  1
  C  638  1  0.65686400  0.05635800  0.35563700  1
  C  639  1  0.68617400  0.05034300  0.38932300  1
  C  640  1  0.70568200  0.08497700  0.40990000  1
  C  641  1  0.70439800  0.12351800  0.38765200  1
  C  642  1  0.67918200  0.12889700  0.35127200  1
  C  644  1  0.66798500  0.97746400  0.39278200  1
  C  645  1  0.63975200  0.98281400  0.35932500  1
  C  652  1  0.64492300  0.04690400  0.77996500  1
  C  653  1  0.66326600  0.08072700  0.75678600  1
  C  654  1  0.69571300  0.07221700  0.72674300  1
  C  655  1  0.71255900  0.03102100  0.72199400  1
  C  656  1  0.70385800  0.00262000  0.75543600  1
  C  657  1  0.66955000  0.00989400  0.78279400  1
  C  659  1  0.69003500  0.14280800  0.70108700  1
  C  660  1  0.65834800  0.15129700  0.73062900  1
  C  667  1  0.32824100  0.09960900  0.77921000  1
  C  668  1  0.31646900  0.05657200  0.77394500  1
  C  669  1  0.28869600  0.04554800  0.74036200  1
  C  670  1  0.27400700  0.07647700  0.71167600  1
  C  671  1  0.27567400  0.11852000  0.72630900  1
  C  672  1  0.29943900  0.12950200  0.76239000  1
  C  674  1  0.30059400  0.97260600  0.75361700  1
  C  675  1  0.32676500  0.98295200  0.78760500  1
  C  682  1  0.33147200  0.05524400  0.33734400  1
  C  683  1  0.31290900  0.08977800  0.35916100  1
  C  684  1  0.27962800  0.08207800  0.38845500  1
  C  685  1  0.26225100  0.04116900  0.39345500  1
  C  686  1  0.27000200  0.01313200  0.35935000  1
  C  687  1  0.30641400  0.01853300  0.33422900  1
  C  689  1  0.28699400  0.15222700  0.41471500  1
  C  690  1  0.31937200  0.16003600  0.38575500  1
  C  697  1  0.48951100  0.85387700  0.89354300  1
  C  698  1  0.52074000  0.87093000  0.86628500  1
  C  699  1  0.50807400  0.89893400  0.83349200  1
  C  700  1  0.46483100  0.90722100  0.82587400  1
  C  701  1  0.43710700  0.87512400  0.84049700  1
  C  702  1  0.44816200  0.85222300  0.87712600  1
  C  704  1  0.57997300  0.91772500  0.82227400  1
  C  705  1  0.59255300  0.89045100  0.85464200  1
  C  712  1  0.53655500  0.28977400  0.89352700  1
  C  713  1  0.49487000  0.28247200  0.87825900  1
  C  714  1  0.48781500  0.24922800  0.84878900  1
  C  715  1  0.52124100  0.22269600  0.83581100  1
  C  716  1  0.56230600  0.23895900  0.84134000  1
  C  717  1  0.56959100  0.27427100  0.86749700  1
  C  719  1  0.41352200  0.25787900  0.85551700  1
  C  720  1  0.41990000  0.29156800  0.88327800  1
  C  727  1  0.46680500  0.29527600  0.20480000  1
  C  728  1  0.50292700  0.27460500  0.22150100  1
  C  729  1  0.49803400  0.24492900  0.25497700  1
  C  730  1  0.45812600  0.23765100  0.27384600  1
  C  731  1  0.42668000  0.26836300  0.26550100  1
  C  732  1  0.43034000  0.29563400  0.23050000  1
  C  734  1  0.56973400  0.22353500  0.24600000  1
  C  735  1  0.57469700  0.25282300  0.21335000  1
  C  742  1  0.52385100  0.85585500  0.20941900  1
  C  743  1  0.48383600  0.87610300  0.21287400  1
  C  744  1  0.47827200  0.90971600  0.24236900  1
  C  745  1  0.51224100  0.92507800  0.26700800  1
  C  746  1  0.54764900  0.89819700  0.26974100  1
  C  747  1  0.55177500  0.86210100  0.24393900  1
  C  749  1  0.40938500  0.92280600  0.21529500  1
  C  750  1  0.41414700  0.88951600  0.18675200  1
  C  757  1  0.21528900  0.88990100  0.56262100  1
  C  758  1  0.18753100  0.87785000  0.52954500  1
  C  759  1  0.15950000  0.84328000  0.53585800  1
  C  760  1  0.16141600  0.81858000  0.57317200  1
  C  761  1  0.19924300  0.82213700  0.59675800  1
  C  762  1  0.22409300  0.85889500  0.59336200  1
  C  764  1  0.12187100  0.86317200  0.47365500  1
  C  765  1  0.14982400  0.89664100  0.46699000  1
  C  772  1  0.78308600  0.89622700  0.52282000  1
  C  773  1  0.78363300  0.88026600  0.56484600  1
  C  774  1  0.81567800  0.85116000  0.57697100  1
  C  775  1  0.84738800  0.83867700  0.54808900  1
  C  776  1  0.83794300  0.84461600  0.50502500  1
  C  777  1  0.80386700  0.87046800  0.49256100  1
  C  779  1  0.79423400  0.85633600  0.64873700  1
  C  780  1  0.76192400  0.88406000  0.63716300  1
  C  787  1  0.77594000  0.20809900  0.59290000  1
  C  788  1  0.79344600  0.21922500  0.55304900  1
  C  789  1  0.82842100  0.24756000  0.55116400  1
  C  790  1  0.84690700  0.26453900  0.58818300  1
  C  791  1  0.82230000  0.26081600  0.62516100  1
  C  792  1  0.78513000  0.23623400  0.62651700  1
  C  794  1  0.83521100  0.23484700  0.47738000  1
  C  795  1  0.80034200  0.20783400  0.47866700  1
  C  802  1  0.21672100  0.21066000  0.54228600  1
  C  803  1  0.19808500  0.23190000  0.57715600  1
  C  804  1  0.16776300  0.26436000  0.56972400  1
  C  805  1  0.15920400  0.27867500  0.52821700  1
  C  806  1  0.19015900  0.26832200  0.49757000  1
  C  807  1  0.21668400  0.23308800  0.50374100  1
  C  809  1  0.14867000  0.26272900  0.64255300  1
  C  810  1  0.17838200  0.23090800  0.64992900  1
  C  817  1  0.15212000  0.56104700  0.84350200  1
  C  818  1  0.17026400  0.52865600  0.86871800  1
  C  819  1  0.20300900  0.53906800  0.89786600  1
  C  820  1  0.22156000  0.57976200  0.89810900  1
  C  821  1  0.21385000  0.60452800  0.86158400  1
  C  822  1  0.17799000  0.59663700  0.83641200  1
  C  824  1  0.19316900  0.47265400  0.93189900  1
  C  825  1  0.16156600  0.46207500  0.90296700  1
  C  832  1  0.16445000  0.52224100  0.27657900  1
  C  833  1  0.18332100  0.56299500  0.27643700  1
  C  834  1  0.21225600  0.57349900  0.24371400  1
  C  835  1  0.22114000  0.54438200  0.21110500  1
  C  836  1  0.21271600  0.50163900  0.22012400  1
  C  837  1  0.18756000  0.49033200  0.25514600  1
  C  839  1  0.21236000  0.64524800  0.26583200  1
  C  840  1  0.18493800  0.63516300  0.29890200  1
  C  847  1  0.85481500  0.60059700  0.29625100  1
  C  848  1  0.84085500  0.55937400  0.28495400  1
  C  849  1  0.80862300  0.55491700  0.25387900  1
  C  850  1  0.79369300  0.59023700  0.23104400  1
  C  851  1  0.79998800  0.62967500  0.25063300  1
  C  852  1  0.82674300  0.63411100  0.28602000  1
  C  854  1  0.81752700  0.48042200  0.25369700  1
  C  855  1  0.84926800  0.48424400  0.28402400  1
  C  862  1  0.83282200  0.54239100  0.86185800  1
  C  863  1  0.82318800  0.57848100  0.88674300  1
  C  864  1  0.78987900  0.57647400  0.91689200  1
  C  865  1  0.76446500  0.53989600  0.92073100  1
  C  866  1  0.76592700  0.51139200  0.88628300  1
  C  867  1  0.80096000  0.51136400  0.85882700  1
  C  869  1  0.81210400  0.64253400  0.94543700  1
  C  870  1  0.84442000  0.64495000  0.91547300  1
  N  523  1  0.04357000  0.39779500  0.35474900  1
  N  526  1  0.02680300  0.33036800  0.40416000  1
  N  538  1  0.95381300  0.70791900  0.34764700  1
  N  541  1  0.93457400  0.76106500  0.41151500  1
  N  553  1  0.05282900  0.68644700  0.79884900  1
  N  556  1  0.06569400  0.73857400  0.73258300  1
  N  568  1  0.93927300  0.38950900  0.76589600  1
  N  571  1  0.94996300  0.32658900  0.70933800  1
  N  583  1  0.66572000  0.35133200  0.02294500  1
  N  586  1  0.73300500  0.39985700  0.04324900  1
  N  598  1  0.35340200  0.35944300  0.10041600  1
  N  601  1  0.29675900  0.42166900  0.11437000  1
  N  613  1  0.35671700  0.78638700  0.00205200  1
  N  616  1  0.29011100  0.73428100  0.01262700  1
  N  628  1  0.66418400  0.78986300  0.10792000  1
  N  631  1  0.71530800  0.72493300  0.12889600  1
  N  643  1  0.68944000  0.01138100  0.40682000  1
  N  646  1  0.63473000  0.02177200  0.34230000  1
  N  658  1  0.70684600  0.10371900  0.69996100  1
  N  661  1  0.64534900  0.11996900  0.75673200  1
  N  673  1  0.28315700  0.00414700  0.73100100  1
  N  676  1  0.33428300  0.02421500  0.79627500  1
  N  688  1  0.26899700  0.11364800  0.41534700  1
  N  691  1  0.33187800  0.12852000  0.35967100  1
  N  703  1  0.53847300  0.92151500  0.81359500  1
  N  706  1  0.56265200  0.86871000  0.87616600  1
  N  718  1  0.44754800  0.23770100  0.83988700  1
  N  721  1  0.45992400  0.30237300  0.89399000  1
  N  733  1  0.53172000  0.22040800  0.26490400  1
  N  736  1  0.54118000  0.27671300  0.20163700  1
  N  748  1  0.44172200  0.93200300  0.24133000  1
  N  751  1  0.45101500  0.86774600  0.18608200  1
  N  763  1  0.12750900  0.83837500  0.50779100  1
  N  766  1  0.18108100  0.90340900  0.49537100  1
  N  778  1  0.82016000  0.84153000  0.61844200  1
  N  781  1  0.75806600  0.89556300  0.59608400  1
  N  793  1  0.84814900  0.25311000  0.51355900  1
  N  796  1  0.78109300  0.20048200  0.51618700  1
  N  808  1  0.14413000  0.27754500  0.60289700  1
  N  811  1  0.20128800  0.21585400  0.61705500  1
  N  823  1  0.21207800  0.51065100  0.92857000  1
  N  826  1  0.15044800  0.49060800  0.87310400  1
  N  838  1  0.22436500  0.61431900  0.23920000  1
  N  841  1  0.17097300  0.59486200  0.30279200  1
  N  853  1  0.79927700  0.51584600  0.23910400  1
  N  856  1  0.86012500  0.52314500  0.29840100  1
  N  868  1  0.78669900  0.60837500  0.94529200  1
  N  871  1  0.84944500  0.61273300  0.88777200  1
  O  530  1  0.09884000  0.31198000  0.40414800  1
  O  545  1  0.86554100  0.73384300  0.41411400  1
  O  560  1  0.13331600  0.70970800  0.72221800  1
  O  575  1  0.87687200  0.32597100  0.69599200  1
  O  590  1  0.75313400  0.40141000  0.97149200  1
  O  605  1  0.32020200  0.42801100  0.18453900  1
  O  620  1  0.28485100  0.72526800  0.93906100  1
  O  635  1  0.69159600  0.72824300  0.19918200  1
  O  650  1  0.61721800  0.94960400  0.34517700  1
  O  665  1  0.64012500  0.18975500  0.73188500  1
  O  680  1  0.34484300  0.95199600  0.81056500  1
  O  695  1  0.33894500  0.19784600  0.38529500  1
  O  710  1  0.63368200  0.88733200  0.86521200  1
  O  725  1  0.38644300  0.31210200  0.89978300  1
  O  740  1  0.61198000  0.25600000  0.19302800  1
  O  755  1  0.38267300  0.88031000  0.15961200  1
  O  770  1  0.14437700  0.92275700  0.43380300  1
  O  785  1  0.73581300  0.89959900  0.66696300  1
  O  800  1  0.78685700  0.18880200  0.44305200  1
  O  815  1  0.18268000  0.21438400  0.68893400  1
  O  830  1  0.14111100  0.42489300  0.90636000  1
  O  845  1  0.17191900  0.66563000  0.32563800  1
  O  860  1  0.86965500  0.44925100  0.29684400  1
  O  875  1  0.87099900  0.67821800  0.91537200  1
