# generated using pymatgen
data_SiH32C48(N2O)4
_symmetry_space_group_name_H-M   'P 1'
_cell_length_a   33.16950000
_cell_length_b   33.16950000
_cell_length_c   42.84800000
_cell_angle_alpha   90.00000000
_cell_angle_beta   90.00000000
_cell_angle_gamma   120.00000000
_symmetry_Int_Tables_number   1
_chemical_formula_structural   SiH32C48(N2O)4
_chemical_formula_sum   'Si12 H384 C576 N96 O48'
_cell_volume   40826.20735236
_cell_formula_units_Z   12
loop_
 _symmetry_equiv_pos_site_id
 _symmetry_equiv_pos_as_xyz
  1  'x, y, z'
loop_
 _atom_site_type_symbol
 _atom_site_label
 _atom_site_symmetry_multiplicity
 _atom_site_fract_x
 _atom_site_fract_y
 _atom_site_fract_z
 _atom_site_occupancy
  Si  7  1  0.53898700  0.51927500  0.00028800  1
  Si  56  1  0.03936800  0.51887300  0.33341800  1
  Si  105  1  0.53951900  0.01911800  0.66666667  1
  Si  286  1  0.53898700  0.51927500  0.76690500  1
  Si  335  1  0.03936800  0.51887300  0.10003500  1
  Si  384  1  0.53951900  0.01911800  0.43329200  1
  Si  565  1  0.53898700  0.51927500  0.53352200  1
  Si  614  1  0.03936800  0.51887300  0.86665200  1
  Si  663  1  0.53951900  0.01911800  0.19990900  1
  Si  844  1  0.53898700  0.51927500  0.30013900  1
  Si  893  1  0.03936800  0.51887300  0.63326900  1
  Si  942  1  0.53951900  0.01911800  0.96652560  1
  H  26  1  0.65422200  0.65852700  0.05200900  1
  H  27  1  0.58898300  0.61657700  0.01852600  1
  H  28  1  0.65279200  0.53406000  0.07413600  1
  H  29  1  0.58776300  0.49146100  0.04076500  1
  H  30  1  0.48915700  0.42171700  0.01793800  1
  H  31  1  0.42438400  0.37934900  0.05171300  1
  H  32  1  0.42651200  0.50362000  0.07558100  1
  H  33  1  0.49105200  0.54664300  0.04188300  1
  H  34  1  0.45799900  0.52742400  0.98376500  1
  H  35  1  0.45134800  0.58175200  0.95067200  1
  H  36  1  0.59264900  0.64105600  0.92570200  1
  H  37  1  0.60023800  0.58765200  0.95857100  1
  H  38  1  0.61971300  0.51144600  0.98244900  1
  H  39  1  0.47699200  0.45132000  0.95862400  1
  H  40  1  0.48395400  0.39812700  0.92514400  1
  H  41  1  0.62574800  0.45737400  0.94873100  1
  H  43  1  0.69300600  0.63883700  0.10233800  1
  H  45  1  0.38724700  0.40038600  0.10353100  1
  H  47  1  0.50103000  0.63791900  0.89885800  1
  H  49  1  0.57591200  0.40118500  0.89753700  1
  H  75  1  0.06378400  0.40354200  0.38464600  1
  H  76  1  0.08669200  0.46863600  0.35105900  1
  H  77  1  0.94146200  0.40567400  0.40793500  1
  H  78  1  0.96350200  0.47053700  0.37448200  1
  H  79  1  0.99202300  0.56875200  0.35187600  1
  H  80  1  0.01528500  0.63379200  0.38555600  1
  H  81  1  0.13809200  0.63195000  0.40774600  1
  H  82  1  0.11566300  0.56708900  0.37421100  1
  H  83  1  0.12794200  0.59989300  0.31608700  1
  H  84  1  0.18831100  0.60659200  0.28237500  1
  H  85  1  0.10631400  0.46506000  0.25797400  1
  H  86  1  0.04591500  0.45740100  0.29153000  1
  H  87  1  0.95065000  0.43802600  0.31607500  1
  H  88  1  0.03249700  0.58079400  0.29216700  1
  H  89  1  0.97179900  0.57359900  0.25915300  1
  H  90  1  0.89000000  0.43174600  0.28280600  1
  H  92  1  0.00572400  0.36544100  0.43572100  1
  H  94  1  0.07353700  0.67258000  0.43581000  1
  H  96  1  0.19306600  0.55543900  0.22995900  1
  H  98  1  0.88289400  0.48125500  0.23181900  1
  H  124  1  0.39983500  0.99485400  0.71794000  1
  H  125  1  0.44191300  0.97193800  0.68426300  1
  H  126  1  0.52448300  0.11677300  0.74153700  1
  H  127  1  0.56720800  0.09472300  0.70799300  1
  H  128  1  0.63691700  0.06613300  0.68478100  1
  H  129  1  0.67867000  0.04274900  0.71838800  1
  H  130  1  0.55381000  0.92046100  0.74106600  1
  H  131  1  0.51141300  0.94299600  0.70760100  1
  H  132  1  0.53149200  0.93028200  0.64947000  1
  H  133  1  0.47748300  0.86987500  0.61593100  1
  H  134  1  0.41862900  0.95240600  0.59132000  1
  H  135  1  0.47167100  0.01282900  0.62473800  1
  H  136  1  0.54751000  0.10801300  0.64969400  1
  H  137  1  0.60802700  0.02603700  0.62512600  1
  H  138  1  0.66140300  0.08683500  0.59210500  1
  H  139  1  0.60175100  0.16875300  0.61643700  1
  H  141  1  0.42012000  0.05295900  0.76925600  1
  H  143  1  0.65905600  0.98469700  0.76887700  1
  H  145  1  0.42163200  0.86548300  0.56347300  1
  H  147  1  0.65798900  0.17524800  0.56489400  1
  H  160  1  0.50488200  0.25251400  0.92436300  1
  H  161  1  0.48937900  0.29721500  0.81981700  1
  H  162  1  0.51809900  0.35475600  0.85977100  1
  H  163  1  0.43353700  0.19387800  0.75197400  1
  H  164  1  0.45360500  0.10241900  0.81019800  1
  H  165  1  0.47116000  0.15502300  0.85215100  1
  H  182  1  0.80581800  0.55304600  0.25818900  1
  H  183  1  0.86662900  0.56820100  0.15385500  1
  H  184  1  0.89484800  0.53914700  0.19397100  1
  H  185  1  0.82006900  0.62438500  0.08568600  1
  H  186  1  0.70855700  0.60534100  0.14355100  1
  H  187  1  0.74309200  0.58750100  0.18568600  1
  H  204  1  0.80684300  0.25320000  0.59142800  1
  H  205  1  0.76144100  0.19160700  0.48724300  1
  H  206  1  0.70414900  0.16341500  0.52734100  1
  H  207  1  0.86425800  0.23824100  0.41908600  1
  H  208  1  0.95662800  0.34996300  0.47684600  1
  H  209  1  0.90416300  0.31558300  0.51896200  1
  H  226  1  0.57270400  0.78688200  0.92520800  1
  H  227  1  0.58877300  0.74077300  0.82121800  1
  H  228  1  0.55927600  0.68366100  0.86141800  1
  H  229  1  0.64358100  0.84268500  0.75250600  1
  H  230  1  0.62622700  0.93616300  0.81041000  1
  H  231  1  0.60877900  0.88416300  0.85271400  1
  H  248  1  0.27414800  0.48824500  0.25764100  1
  H  249  1  0.21036200  0.46741700  0.15379200  1
  H  250  1  0.18186400  0.49679400  0.19351900  1
  H  251  1  0.25851600  0.41176900  0.08618100  1
  H  252  1  0.37138700  0.43451700  0.14395700  1
  H  253  1  0.33661800  0.45262400  0.18578200  1
  H  270  1  0.27313000  0.78555700  0.59108700  1
  H  271  1  0.31698300  0.84950400  0.48734100  1
  H  272  1  0.37467400  0.87738500  0.52716100  1
  H  273  1  0.21481400  0.79987000  0.41882700  1
  H  274  1  0.12249700  0.68920000  0.47730100  1
  H  275  1  0.17471200  0.72460700  0.51939400  1
  H  305  1  0.65422200  0.65852700  0.81862600  1
  H  306  1  0.58898300  0.61657700  0.78514300  1
  H  307  1  0.65279200  0.53406000  0.84075300  1
  H  308  1  0.58776300  0.49146100  0.80738200  1
  H  309  1  0.48915700  0.42171700  0.78455500  1
  H  310  1  0.42438400  0.37934900  0.81833000  1
  H  311  1  0.42651200  0.50362000  0.84219800  1
  H  312  1  0.49105200  0.54664300  0.80850000  1
  H  313  1  0.45799900  0.52742400  0.75038200  1
  H  314  1  0.45134800  0.58175200  0.71728900  1
  H  315  1  0.59264900  0.64105600  0.69231900  1
  H  316  1  0.60023800  0.58765200  0.72518800  1
  H  317  1  0.61971300  0.51144600  0.74906600  1
  H  318  1  0.47699200  0.45132000  0.72524100  1
  H  319  1  0.48395400  0.39812700  0.69176100  1
  H  320  1  0.62574800  0.45737400  0.71534800  1
  H  322  1  0.69300600  0.63883700  0.86895500  1
  H  324  1  0.38724700  0.40038600  0.87014800  1
  H  326  1  0.50103000  0.63791900  0.66547500  1
  H  328  1  0.57591200  0.40118500  0.66415400  1
  H  354  1  0.06378400  0.40354200  0.15126300  1
  H  355  1  0.08669200  0.46863600  0.11767600  1
  H  356  1  0.94146200  0.40567400  0.17455200  1
  H  357  1  0.96350200  0.47053700  0.14109900  1
  H  358  1  0.99202300  0.56875200  0.11849300  1
  H  359  1  0.01528500  0.63379200  0.15217300  1
  H  360  1  0.13809200  0.63195000  0.17436300  1
  H  361  1  0.11566300  0.56708900  0.14082800  1
  H  362  1  0.12794200  0.59989300  0.08270400  1
  H  363  1  0.18831100  0.60659200  0.04899200  1
  H  364  1  0.10631400  0.46506000  0.02459100  1
  H  365  1  0.04591500  0.45740100  0.05814700  1
  H  366  1  0.95065000  0.43802600  0.08269200  1
  H  367  1  0.03249700  0.58079400  0.05878400  1
  H  368  1  0.97179900  0.57359900  0.02577000  1
  H  369  1  0.89000000  0.43174600  0.04942300  1
  H  371  1  0.00572400  0.36544100  0.20233800  1
  H  373  1  0.07353700  0.67258000  0.20242700  1
  H  375  1  0.19306600  0.55543900  0.99657588  1
  H  377  1  0.88289400  0.48125500  0.99843588  1
  H  403  1  0.39983500  0.99485400  0.48455700  1
  H  404  1  0.44191300  0.97193800  0.45088000  1
  H  405  1  0.52448300  0.11677300  0.50815400  1
  H  406  1  0.56720800  0.09472300  0.47461000  1
  H  407  1  0.63691700  0.06613300  0.45139800  1
  H  408  1  0.67867000  0.04274900  0.48500500  1
  H  409  1  0.55381000  0.92046100  0.50768300  1
  H  410  1  0.51141300  0.94299600  0.47421800  1
  H  411  1  0.53149200  0.93028200  0.41608700  1
  H  412  1  0.47748300  0.86987500  0.38254800  1
  H  413  1  0.41862900  0.95240600  0.35793700  1
  H  414  1  0.47167100  0.01282900  0.39135500  1
  H  415  1  0.54751000  0.10801300  0.41631100  1
  H  416  1  0.60802700  0.02603700  0.39174300  1
  H  417  1  0.66140300  0.08683500  0.35872200  1
  H  418  1  0.60175100  0.16875300  0.38305400  1
  H  420  1  0.42012000  0.05295900  0.53587300  1
  H  422  1  0.65905600  0.98469700  0.53549400  1
  H  424  1  0.42163200  0.86548300  0.33009000  1
  H  426  1  0.65798900  0.17524800  0.33151100  1
  H  439  1  0.50488200  0.25251400  0.69098000  1
  H  440  1  0.48937900  0.29721500  0.58643400  1
  H  441  1  0.51809900  0.35475600  0.62638800  1
  H  442  1  0.43353700  0.19387800  0.51859100  1
  H  443  1  0.45360500  0.10241900  0.57681500  1
  H  444  1  0.47116000  0.15502300  0.61876800  1
  H  461  1  0.80581800  0.55304600  0.02480600  1
  H  462  1  0.86662900  0.56820100  0.92047190  1
  H  463  1  0.89484800  0.53914700  0.96058790  1
  H  464  1  0.82006900  0.62438500  0.85230300  1
  H  465  1  0.70855700  0.60534100  0.91016790  1
  H  466  1  0.74309200  0.58750100  0.95230290  1
  H  483  1  0.80684300  0.25320000  0.35804500  1
  H  484  1  0.76144100  0.19160700  0.25386000  1
  H  485  1  0.70414900  0.16341500  0.29395800  1
  H  486  1  0.86425800  0.23824100  0.18570300  1
  H  487  1  0.95662800  0.34996300  0.24346300  1
  H  488  1  0.90416300  0.31558300  0.28557900  1
  H  505  1  0.57270400  0.78688200  0.69182500  1
  H  506  1  0.58877300  0.74077300  0.58783500  1
  H  507  1  0.55927600  0.68366100  0.62803500  1
  H  508  1  0.64358100  0.84268500  0.51912300  1
  H  509  1  0.62622700  0.93616300  0.57702700  1
  H  510  1  0.60877900  0.88416300  0.61933100  1
  H  527  1  0.27414800  0.48824500  0.02425800  1
  H  528  1  0.21036200  0.46741700  0.92040890  1
  H  529  1  0.18186400  0.49679400  0.96013590  1
  H  530  1  0.25851600  0.41176900  0.85279800  1
  H  531  1  0.37138700  0.43451700  0.91057390  1
  H  532  1  0.33661800  0.45262400  0.95239890  1
  H  549  1  0.27313000  0.78555700  0.35770400  1
  H  550  1  0.31698300  0.84950400  0.25395800  1
  H  551  1  0.37467400  0.87738500  0.29377800  1
  H  552  1  0.21481400  0.79987000  0.18544400  1
  H  553  1  0.12249700  0.68920000  0.24391800  1
  H  554  1  0.17471200  0.72460700  0.28601100  1
  H  584  1  0.65422200  0.65852700  0.58524300  1
  H  585  1  0.58898300  0.61657700  0.55176000  1
  H  586  1  0.65279200  0.53406000  0.60737000  1
  H  587  1  0.58776300  0.49146100  0.57399900  1
  H  588  1  0.48915700  0.42171700  0.55117200  1
  H  589  1  0.42438400  0.37934900  0.58494700  1
  H  590  1  0.42651200  0.50362000  0.60881500  1
  H  591  1  0.49105200  0.54664300  0.57511700  1
  H  592  1  0.45799900  0.52742400  0.51699900  1
  H  593  1  0.45134800  0.58175200  0.48390600  1
  H  594  1  0.59264900  0.64105600  0.45893600  1
  H  595  1  0.60023800  0.58765200  0.49180500  1
  H  596  1  0.61971300  0.51144600  0.51568300  1
  H  597  1  0.47699200  0.45132000  0.49185800  1
  H  598  1  0.48395400  0.39812700  0.45837800  1
  H  599  1  0.62574800  0.45737400  0.48196500  1
  H  601  1  0.69300600  0.63883700  0.63557200  1
  H  603  1  0.38724700  0.40038600  0.63676500  1
  H  605  1  0.50103000  0.63791900  0.43209200  1
  H  607  1  0.57591200  0.40118500  0.43077100  1
  H  633  1  0.06378400  0.40354200  0.91787980  1
  H  634  1  0.08669200  0.46863600  0.88429300  1
  H  635  1  0.94146200  0.40567400  0.94116880  1
  H  636  1  0.96350200  0.47053700  0.90771580  1
  H  637  1  0.99202300  0.56875200  0.88511000  1
  H  638  1  0.01528500  0.63379200  0.91878980  1
  H  639  1  0.13809200  0.63195000  0.94097980  1
  H  640  1  0.11566300  0.56708900  0.90744480  1
  H  641  1  0.12794200  0.59989300  0.84932100  1
  H  642  1  0.18831100  0.60659200  0.81560900  1
  H  643  1  0.10631400  0.46506000  0.79120800  1
  H  644  1  0.04591500  0.45740100  0.82476400  1
  H  645  1  0.95065000  0.43802600  0.84930900  1
  H  646  1  0.03249700  0.58079400  0.82540100  1
  H  647  1  0.97179900  0.57359900  0.79238700  1
  H  648  1  0.89000000  0.43174600  0.81604000  1
  H  650  1  0.00572400  0.36544100  0.96895480  1
  H  652  1  0.07353700  0.67258000  0.96904380  1
  H  654  1  0.19306600  0.55543900  0.76319300  1
  H  656  1  0.88289400  0.48125500  0.76505300  1
  H  682  1  0.39983500  0.99485400  0.25117400  1
  H  683  1  0.44191300  0.97193800  0.21749700  1
  H  684  1  0.52448300  0.11677300  0.27477100  1
  H  685  1  0.56720800  0.09472300  0.24122700  1
  H  686  1  0.63691700  0.06613300  0.21801500  1
  H  687  1  0.67867000  0.04274900  0.25162200  1
  H  688  1  0.55381000  0.92046100  0.27430000  1
  H  689  1  0.51141300  0.94299600  0.24083500  1
  H  690  1  0.53149200  0.93028200  0.18270400  1
  H  691  1  0.47748300  0.86987500  0.14916500  1
  H  692  1  0.41862900  0.95240600  0.12455400  1
  H  693  1  0.47167100  0.01282900  0.15797200  1
  H  694  1  0.54751000  0.10801300  0.18292800  1
  H  695  1  0.60802700  0.02603700  0.15836000  1
  H  696  1  0.66140300  0.08683500  0.12533900  1
  H  697  1  0.60175100  0.16875300  0.14967100  1
  H  699  1  0.42012000  0.05295900  0.30249000  1
  H  701  1  0.65905600  0.98469700  0.30211100  1
  H  703  1  0.42163200  0.86548300  0.09670700  1
  H  705  1  0.65798900  0.17524800  0.09812800  1
  H  718  1  0.50488200  0.25251400  0.45759700  1
  H  719  1  0.48937900  0.29721500  0.35305100  1
  H  720  1  0.51809900  0.35475600  0.39300500  1
  H  721  1  0.43353700  0.19387800  0.28520800  1
  H  722  1  0.45360500  0.10241900  0.34343200  1
  H  723  1  0.47116000  0.15502300  0.38538500  1
  H  740  1  0.80581800  0.55304600  0.79142300  1
  H  741  1  0.86662900  0.56820100  0.68708900  1
  H  742  1  0.89484800  0.53914700  0.72720500  1
  H  743  1  0.82006900  0.62438500  0.61892000  1
  H  744  1  0.70855700  0.60534100  0.67678500  1
  H  745  1  0.74309200  0.58750100  0.71892000  1
  H  762  1  0.80684300  0.25320000  0.12466200  1
  H  763  1  0.76144100  0.19160700  0.02047700  1
  H  764  1  0.70414900  0.16341500  0.06057500  1
  H  765  1  0.86425800  0.23824100  0.95231980  1
  H  766  1  0.95662800  0.34996300  0.01008000  1
  H  767  1  0.90416300  0.31558300  0.05219600  1
  H  784  1  0.57270400  0.78688200  0.45844200  1
  H  785  1  0.58877300  0.74077300  0.35445200  1
  H  786  1  0.55927600  0.68366100  0.39465200  1
  H  787  1  0.64358100  0.84268500  0.28574000  1
  H  788  1  0.62622700  0.93616300  0.34364400  1
  H  789  1  0.60877900  0.88416300  0.38594800  1
  H  806  1  0.27414800  0.48824500  0.79087500  1
  H  807  1  0.21036200  0.46741700  0.68702600  1
  H  808  1  0.18186400  0.49679400  0.72675300  1
  H  809  1  0.25851600  0.41176900  0.61941500  1
  H  810  1  0.37138700  0.43451700  0.67719100  1
  H  811  1  0.33661800  0.45262400  0.71901600  1
  H  828  1  0.27313000  0.78555700  0.12432100  1
  H  829  1  0.31698300  0.84950400  0.02057500  1
  H  830  1  0.37467400  0.87738500  0.06039500  1
  H  831  1  0.21481400  0.79987000  0.95206080  1
  H  832  1  0.12249700  0.68920000  0.01053500  1
  H  833  1  0.17471200  0.72460700  0.05262800  1
  H  863  1  0.65422200  0.65852700  0.35186000  1
  H  864  1  0.58898300  0.61657700  0.31837700  1
  H  865  1  0.65279200  0.53406000  0.37398700  1
  H  866  1  0.58776300  0.49146100  0.34061600  1
  H  867  1  0.48915700  0.42171700  0.31778900  1
  H  868  1  0.42438400  0.37934900  0.35156400  1
  H  869  1  0.42651200  0.50362000  0.37543200  1
  H  870  1  0.49105200  0.54664300  0.34173400  1
  H  871  1  0.45799900  0.52742400  0.28361600  1
  H  872  1  0.45134800  0.58175200  0.25052300  1
  H  873  1  0.59264900  0.64105600  0.22555300  1
  H  874  1  0.60023800  0.58765200  0.25842200  1
  H  875  1  0.61971300  0.51144600  0.28230000  1
  H  876  1  0.47699200  0.45132000  0.25847500  1
  H  877  1  0.48395400  0.39812700  0.22499500  1
  H  878  1  0.62574800  0.45737400  0.24858200  1
  H  880  1  0.69300600  0.63883700  0.40218900  1
  H  882  1  0.38724700  0.40038600  0.40338200  1
  H  884  1  0.50103000  0.63791900  0.19870900  1
  H  886  1  0.57591200  0.40118500  0.19738800  1
  H  912  1  0.06378400  0.40354200  0.68449700  1
  H  913  1  0.08669200  0.46863600  0.65091000  1
  H  914  1  0.94146200  0.40567400  0.70778600  1
  H  915  1  0.96350200  0.47053700  0.67433300  1
  H  916  1  0.99202300  0.56875200  0.65172700  1
  H  917  1  0.01528500  0.63379200  0.68540700  1
  H  918  1  0.13809200  0.63195000  0.70759700  1
  H  919  1  0.11566300  0.56708900  0.67406200  1
  H  920  1  0.12794200  0.59989300  0.61593800  1
  H  921  1  0.18831100  0.60659200  0.58222600  1
  H  922  1  0.10631400  0.46506000  0.55782500  1
  H  923  1  0.04591500  0.45740100  0.59138100  1
  H  924  1  0.95065000  0.43802600  0.61592600  1
  H  925  1  0.03249700  0.58079400  0.59201800  1
  H  926  1  0.97179900  0.57359900  0.55900400  1
  H  927  1  0.89000000  0.43174600  0.58265700  1
  H  929  1  0.00572400  0.36544100  0.73557200  1
  H  931  1  0.07353700  0.67258000  0.73566100  1
  H  933  1  0.19306600  0.55543900  0.52981000  1
  H  935  1  0.88289400  0.48125500  0.53167000  1
  H  961  1  0.39983500  0.99485400  0.01779100  1
  H  962  1  0.44191300  0.97193800  0.98411360  1
  H  963  1  0.52448300  0.11677300  0.04138800  1
  H  964  1  0.56720800  0.09472300  0.00784400  1
  H  965  1  0.63691700  0.06613300  0.98463160  1
  H  966  1  0.67867000  0.04274900  0.01823900  1
  H  967  1  0.55381000  0.92046100  0.04091700  1
  H  968  1  0.51141300  0.94299600  0.00745200  1
  H  969  1  0.53149200  0.93028200  0.94932060  1
  H  970  1  0.47748300  0.86987500  0.91578160  1
  H  971  1  0.41862900  0.95240600  0.89117100  1
  H  972  1  0.47167100  0.01282900  0.92458860  1
  H  973  1  0.54751000  0.10801300  0.94954460  1
  H  974  1  0.60802700  0.02603700  0.92497660  1
  H  975  1  0.66140300  0.08683500  0.89195600  1
  H  976  1  0.60175100  0.16875300  0.91628760  1
  H  978  1  0.42012000  0.05295900  0.06910700  1
  H  980  1  0.65905600  0.98469700  0.06872800  1
  H  982  1  0.42163200  0.86548300  0.86332400  1
  H  984  1  0.65798900  0.17524800  0.86474500  1
  H  997  1  0.50488200  0.25251400  0.22421400  1
  H  998  1  0.48937900  0.29721500  0.11966800  1
  H  999  1  0.51809900  0.35475600  0.15962200  1
  H  1000  1  0.43353700  0.19387800  0.05182500  1
  H  1001  1  0.45360500  0.10241900  0.11004900  1
  H  1002  1  0.47116000  0.15502300  0.15200200  1
  H  1019  1  0.80581800  0.55304600  0.55804000  1
  H  1020  1  0.86662900  0.56820100  0.45370600  1
  H  1021  1  0.89484800  0.53914700  0.49382200  1
  H  1022  1  0.82006900  0.62438500  0.38553700  1
  H  1023  1  0.70855700  0.60534100  0.44340200  1
  H  1024  1  0.74309200  0.58750100  0.48553700  1
  H  1041  1  0.80684300  0.25320000  0.89127900  1
  H  1042  1  0.76144100  0.19160700  0.78709400  1
  H  1043  1  0.70414900  0.16341500  0.82719200  1
  H  1044  1  0.86425800  0.23824100  0.71893700  1
  H  1045  1  0.95662800  0.34996300  0.77669700  1
  H  1046  1  0.90416300  0.31558300  0.81881300  1
  H  1063  1  0.57270400  0.78688200  0.22505900  1
  H  1064  1  0.58877300  0.74077300  0.12106900  1
  H  1065  1  0.55927600  0.68366100  0.16126900  1
  H  1066  1  0.64358100  0.84268500  0.05235700  1
  H  1067  1  0.62622700  0.93616300  0.11026100  1
  H  1068  1  0.60877900  0.88416300  0.15256500  1
  H  1085  1  0.27414800  0.48824500  0.55749200  1
  H  1086  1  0.21036200  0.46741700  0.45364300  1
  H  1087  1  0.18186400  0.49679400  0.49337000  1
  H  1088  1  0.25851600  0.41176900  0.38603200  1
  H  1089  1  0.37138700  0.43451700  0.44380800  1
  H  1090  1  0.33661800  0.45262400  0.48563300  1
  H  1107  1  0.27313000  0.78555700  0.89093800  1
  H  1108  1  0.31698300  0.84950400  0.78719200  1
  H  1109  1  0.37467400  0.87738500  0.82701200  1
  H  1110  1  0.21481400  0.79987000  0.71867800  1
  H  1111  1  0.12249700  0.68920000  0.77715200  1
  H  1112  1  0.17471200  0.72460700  0.81924500  1
  C  1  1  0.55500000  0.42176200  0.93495000  1
  C  2  1  0.51256600  0.42170100  0.93741200  1
  C  3  1  0.50877600  0.45334300  0.95713500  1
  C  4  1  0.54696800  0.48513000  0.97563500  1
  C  5  1  0.59038400  0.48732800  0.97114800  1
  C  6  1  0.59439700  0.45605600  0.95093400  1
  C  8  1  0.53058300  0.55372100  0.97618400  1
  C  9  1  0.56843700  0.58566000  0.95750700  1
  C  10  1  0.56428900  0.61745300  0.93816100  1
  C  11  1  0.52181200  0.61740800  0.93626300  1
  C  12  1  0.48272100  0.58302300  0.95244700  1
  C  13  1  0.48711300  0.55161800  0.97230700  1
  C  14  1  0.49476000  0.48827300  0.02444900  1
  C  15  1  0.58366200  0.55000800  0.02417600  1
  C  16  1  0.60260400  0.59848400  0.02917300  1
  C  17  1  0.64072300  0.62344800  0.04926500  1
  C  18  1  0.66108800  0.60062100  0.06475200  1
  C  19  1  0.64014100  0.55178600  0.06183900  1
  C  20  1  0.60156800  0.52676200  0.04224200  1
  C  21  1  0.47579700  0.43970900  0.02904200  1
  C  22  1  0.43799300  0.41449700  0.04932500  1
  C  23  1  0.41800200  0.43718200  0.06542900  1
  C  24  1  0.43899400  0.48606700  0.06291500  1
  C  25  1  0.47723900  0.51132000  0.04309600  1
  C  50  1  0.92469300  0.50250800  0.26906500  1
  C  51  1  0.96700700  0.54503400  0.27137300  1
  C  52  1  0.00279200  0.54894900  0.29078300  1
  C  53  1  0.99678200  0.51081000  0.30917400  1
  C  54  1  0.95558300  0.46732400  0.30486600  1
  C  55  1  0.91998000  0.46316400  0.28490900  1
  C  57  1  0.08176000  0.52718400  0.30890100  1
  C  58  1  0.07560900  0.48926400  0.29019800  1
  C  59  1  0.11116700  0.49346000  0.27042500  1
  C  60  1  0.15341800  0.53605200  0.26814100  1
  C  61  1  0.15833300  0.57515900  0.28440300  1
  C  62  1  0.12290800  0.57073400  0.30464200  1
  C  63  1  0.05314700  0.56323100  0.35757300  1
  C  64  1  0.02575000  0.47431100  0.35734000  1
  C  65  1  0.05521000  0.45520400  0.36200300  1
  C  66  1  0.04229600  0.41719100  0.38215500  1
  C  67  1  0.99941300  0.39708900  0.39802100  1
  C  68  1  0.97162100  0.41817700  0.39540400  1
  C  69  1  0.98493400  0.45663400  0.37574000  1
  C  70  1  0.02366000  0.58222000  0.36260900  1
  C  71  1  0.03678100  0.62019300  0.38283200  1
  C  72  1  0.07992500  0.64040300  0.39837800  1
  C  73  1  0.10774100  0.61938800  0.39543000  1
  C  74  1  0.09419100  0.58091600  0.37573500  1
  C  99  1  0.63758500  0.13398100  0.60233600  1
  C  100  1  0.63773000  0.09161700  0.60445700  1
  C  101  1  0.60594300  0.05578100  0.62387700  1
  C  102  1  0.57397000  0.06178500  0.64245200  1
  C  103  1  0.57176200  0.10306100  0.63834500  1
  C  104  1  0.60313200  0.13872700  0.61839500  1
  C  106  1  0.50534200  0.97675700  0.64217200  1
  C  107  1  0.47365900  0.98303300  0.62346000  1
  C  108  1  0.44211400  0.94745700  0.60377400  1
  C  109  1  0.44213200  0.90503200  0.60162000  1
  C  110  1  0.47624700  0.89998000  0.61787700  1
  C  111  1  0.50745700  0.93544000  0.63800600  1
  C  112  1  0.57014400  0.00526700  0.69073500  1
  C  113  1  0.50863700  0.03268400  0.69069700  1
  C  114  1  0.46004100  0.00332600  0.69530700  1
  C  115  1  0.43500300  0.01622200  0.71552900  1
  C  116  1  0.45788300  0.05900400  0.73150400  1
  C  117  1  0.50678000  0.08667600  0.72894900  1
  C  118  1  0.53186200  0.07336400  0.70922300  1
  C  119  1  0.61868800  0.03457400  0.69560100  1
  C  120  1  0.64353200  0.02138900  0.71578800  1
  C  121  1  0.62051900  0.97834900  0.73145300  1
  C  122  1  0.57164800  0.95071700  0.72865900  1
  C  123  1  0.54674700  0.96433200  0.70899900  1
  C  148  1  0.44032000  0.14144300  0.77630000  1
  C  149  1  0.45042300  0.13108000  0.80638600  1
  C  150  1  0.46143000  0.16248300  0.83126800  1
  C  151  1  0.46343500  0.20554500  0.82618300  1
  C  153  1  0.43986000  0.18363800  0.77302900  1
  C  154  1  0.48008700  0.24119100  0.84914200  1
  C  155  1  0.49279700  0.28766900  0.84191900  1
  C  156  1  0.51072900  0.32179900  0.86538000  1
  C  157  1  0.51601100  0.31023500  0.89629800  1
  C  158  1  0.50241800  0.26329900  0.90246200  1
  C  166  1  0.52928500  0.34306700  0.92087300  1
  C  167  1  0.43864200  0.11537200  0.74940900  1
  C  170  1  0.76090400  0.61813400  0.10980200  1
  C  171  1  0.74025300  0.60812900  0.13982900  1
  C  172  1  0.76038900  0.59706600  0.16483800  1
  C  173  1  0.80129100  0.59471800  0.15991200  1
  C  175  1  0.80344300  0.61830400  0.10670000  1
  C  176  1  0.81993500  0.57786100  0.18297400  1
  C  177  1  0.85352100  0.56484400  0.17590800  1
  C  178  1  0.86936600  0.54671900  0.19946500  1
  C  179  1  0.85231700  0.54150900  0.23032600  1
  C  180  1  0.81917500  0.55541600  0.23633300  1
  C  188  1  0.87158800  0.52809500  0.25499900  1
  C  189  1  0.73676600  0.61992800  0.08280600  1
  C  192  1  0.91711800  0.29751300  0.44314300  1
  C  193  1  0.92772100  0.31826400  0.47314000  1
  C  194  1  0.89638500  0.29830500  0.49810200  1
  C  195  1  0.85318400  0.25732800  0.49322200  1
  C  197  1  0.87468900  0.25503200  0.44005500  1
  C  198  1  0.81768400  0.23867000  0.51629500  1
  C  199  1  0.77114000  0.20486700  0.50926500  1
  C  200  1  0.73715900  0.18902400  0.53281600  1
  C  201  1  0.74892500  0.20629300  0.56362900  1
  C  202  1  0.79591400  0.23965300  0.56960600  1
  C  210  1  0.71620300  0.18717200  0.58829600  1
  C  211  1  0.94315700  0.32148100  0.41613800  1
  C  214  1  0.63812300  0.89605100  0.77660900  1
  C  215  1  0.62875800  0.90710800  0.80670500  1
  C  216  1  0.61787100  0.87609000  0.83180700  1
  C  217  1  0.61511400  0.83264300  0.82694000  1
  C  219  1  0.63789100  0.85347800  0.77355100  1
  C  220  1  0.59824600  0.79727600  0.85010900  1
  C  221  1  0.58525600  0.75063300  0.84320000  1
  C  222  1  0.56685900  0.71675300  0.86680500  1
  C  223  1  0.56133400  0.72871200  0.89756100  1
  C  224  1  0.57530000  0.77580900  0.90343200  1
  C  232  1  0.54744100  0.69604300  0.92228500  1
  C  233  1  0.63936700  0.92166600  0.74957700  1
  C  236  1  0.31837700  0.41980200  0.11031100  1
  C  237  1  0.33934600  0.43089800  0.14023500  1
  C  238  1  0.31911000  0.44224500  0.16503900  1
  C  239  1  0.27767700  0.44357500  0.16004000  1
  C  241  1  0.27545400  0.41881600  0.10712700  1
  C  242  1  0.25871800  0.46042300  0.18289700  1
  C  243  1  0.22407100  0.47194700  0.17574400  1
  C  244  1  0.20804300  0.49026700  0.19905900  1
  C  245  1  0.22595600  0.49715300  0.22976300  1
  C  246  1  0.26007600  0.48459500  0.23588900  1
  C  254  1  0.20692500  0.51119200  0.25424700  1
  C  255  1  0.34240900  0.41749300  0.08341300  1
  C  258  1  0.16199900  0.74100400  0.44324100  1
  C  259  1  0.15131800  0.72090300  0.47342900  1
  C  260  1  0.18244300  0.74156700  0.49841800  1
  C  261  1  0.22564200  0.78247500  0.49333200  1
  C  263  1  0.20423900  0.78362400  0.43996000  1
  C  264  1  0.26126500  0.80140300  0.51632700  1
  C  265  1  0.30759100  0.83577800  0.50927700  1
  C  266  1  0.34182500  0.85145000  0.53265200  1
  C  267  1  0.33056400  0.83342500  0.56331900  1
  C  268  1  0.28372700  0.79968800  0.56936800  1
  C  276  1  0.36364300  0.85191700  0.58782900  1
  C  277  1  0.13632800  0.71622400  0.41633700  1
  C  280  1  0.55500000  0.42176200  0.70156700  1
  C  281  1  0.51256600  0.42170100  0.70402900  1
  C  282  1  0.50877600  0.45334300  0.72375200  1
  C  283  1  0.54696800  0.48513000  0.74225200  1
  C  284  1  0.59038400  0.48732800  0.73776500  1
  C  285  1  0.59439700  0.45605600  0.71755100  1
  C  287  1  0.53058300  0.55372100  0.74280100  1
  C  288  1  0.56843700  0.58566000  0.72412400  1
  C  289  1  0.56428900  0.61745300  0.70477800  1
  C  290  1  0.52181200  0.61740800  0.70288000  1
  C  291  1  0.48272100  0.58302300  0.71906400  1
  C  292  1  0.48711300  0.55161800  0.73892400  1
  C  293  1  0.49476000  0.48827300  0.79106600  1
  C  294  1  0.58366200  0.55000800  0.79079300  1
  C  295  1  0.60260400  0.59848400  0.79579000  1
  C  296  1  0.64072300  0.62344800  0.81588200  1
  C  297  1  0.66108800  0.60062100  0.83136900  1
  C  298  1  0.64014100  0.55178600  0.82845600  1
  C  299  1  0.60156800  0.52676200  0.80885900  1
  C  300  1  0.47579700  0.43970900  0.79565900  1
  C  301  1  0.43799300  0.41449700  0.81594200  1
  C  302  1  0.41800200  0.43718200  0.83204600  1
  C  303  1  0.43899400  0.48606700  0.82953200  1
  C  304  1  0.47723900  0.51132000  0.80971300  1
  C  329  1  0.92469300  0.50250800  0.03568200  1
  C  330  1  0.96700700  0.54503400  0.03799000  1
  C  331  1  0.00279200  0.54894900  0.05740000  1
  C  332  1  0.99678200  0.51081000  0.07579100  1
  C  333  1  0.95558300  0.46732400  0.07148300  1
  C  334  1  0.91998000  0.46316400  0.05152600  1
  C  336  1  0.08176000  0.52718400  0.07551800  1
  C  337  1  0.07560900  0.48926400  0.05681500  1
  C  338  1  0.11116700  0.49346000  0.03704200  1
  C  339  1  0.15341800  0.53605200  0.03475800  1
  C  340  1  0.15833300  0.57515900  0.05102000  1
  C  341  1  0.12290800  0.57073400  0.07125900  1
  C  342  1  0.05314700  0.56323100  0.12419000  1
  C  343  1  0.02575000  0.47431100  0.12395700  1
  C  344  1  0.05521000  0.45520400  0.12862000  1
  C  345  1  0.04229600  0.41719100  0.14877200  1
  C  346  1  0.99941300  0.39708900  0.16463800  1
  C  347  1  0.97162100  0.41817700  0.16202100  1
  C  348  1  0.98493400  0.45663400  0.14235700  1
  C  349  1  0.02366000  0.58222000  0.12922600  1
  C  350  1  0.03678100  0.62019300  0.14944900  1
  C  351  1  0.07992500  0.64040300  0.16499500  1
  C  352  1  0.10774100  0.61938800  0.16204700  1
  C  353  1  0.09419100  0.58091600  0.14235200  1
  C  378  1  0.63758500  0.13398100  0.36895300  1
  C  379  1  0.63773000  0.09161700  0.37107400  1
  C  380  1  0.60594300  0.05578100  0.39049400  1
  C  381  1  0.57397000  0.06178500  0.40906900  1
  C  382  1  0.57176200  0.10306100  0.40496200  1
  C  383  1  0.60313200  0.13872700  0.38501200  1
  C  385  1  0.50534200  0.97675700  0.40878900  1
  C  386  1  0.47365900  0.98303300  0.39007700  1
  C  387  1  0.44211400  0.94745700  0.37039100  1
  C  388  1  0.44213200  0.90503200  0.36823700  1
  C  389  1  0.47624700  0.89998000  0.38449400  1
  C  390  1  0.50745700  0.93544000  0.40462300  1
  C  391  1  0.57014400  0.00526700  0.45735200  1
  C  392  1  0.50863700  0.03268400  0.45731400  1
  C  393  1  0.46004100  0.00332600  0.46192400  1
  C  394  1  0.43500300  0.01622200  0.48214600  1
  C  395  1  0.45788300  0.05900400  0.49812100  1
  C  396  1  0.50678000  0.08667600  0.49556600  1
  C  397  1  0.53186200  0.07336400  0.47584000  1
  C  398  1  0.61868800  0.03457400  0.46221800  1
  C  399  1  0.64353200  0.02138900  0.48240500  1
  C  400  1  0.62051900  0.97834900  0.49807000  1
  C  401  1  0.57164800  0.95071700  0.49527600  1
  C  402  1  0.54674700  0.96433200  0.47561600  1
  C  427  1  0.44032000  0.14144300  0.54291700  1
  C  428  1  0.45042300  0.13108000  0.57300300  1
  C  429  1  0.46143000  0.16248300  0.59788500  1
  C  430  1  0.46343500  0.20554500  0.59280000  1
  C  432  1  0.43986000  0.18363800  0.53964600  1
  C  433  1  0.48008700  0.24119100  0.61575900  1
  C  434  1  0.49279700  0.28766900  0.60853600  1
  C  435  1  0.51072900  0.32179900  0.63199700  1
  C  436  1  0.51601100  0.31023500  0.66291500  1
  C  437  1  0.50241800  0.26329900  0.66907900  1
  C  445  1  0.52928500  0.34306700  0.68749000  1
  C  446  1  0.43864200  0.11537200  0.51602600  1
  C  449  1  0.76090400  0.61813400  0.87641900  1
  C  450  1  0.74025300  0.60812900  0.90644590  1
  C  451  1  0.76038900  0.59706600  0.93145490  1
  C  452  1  0.80129100  0.59471800  0.92652890  1
  C  454  1  0.80344300  0.61830400  0.87331700  1
  C  455  1  0.81993500  0.57786100  0.94959090  1
  C  456  1  0.85352100  0.56484400  0.94252490  1
  C  457  1  0.86936600  0.54671900  0.96608190  1
  C  458  1  0.85231700  0.54150900  0.99694288  1
  C  459  1  0.81917500  0.55541600  0.00295000  1
  C  467  1  0.87158800  0.52809500  0.02161600  1
  C  468  1  0.73676600  0.61992800  0.84942300  1
  C  471  1  0.91711800  0.29751300  0.20976000  1
  C  472  1  0.92772100  0.31826400  0.23975700  1
  C  473  1  0.89638500  0.29830500  0.26471900  1
  C  474  1  0.85318400  0.25732800  0.25983900  1
  C  476  1  0.87468900  0.25503200  0.20667200  1
  C  477  1  0.81768400  0.23867000  0.28291200  1
  C  478  1  0.77114000  0.20486700  0.27588200  1
  C  479  1  0.73715900  0.18902400  0.29943300  1
  C  480  1  0.74892500  0.20629300  0.33024600  1
  C  481  1  0.79591400  0.23965300  0.33622300  1
  C  489  1  0.71620300  0.18717200  0.35491300  1
  C  490  1  0.94315700  0.32148100  0.18275500  1
  C  493  1  0.63812300  0.89605100  0.54322600  1
  C  494  1  0.62875800  0.90710800  0.57332200  1
  C  495  1  0.61787100  0.87609000  0.59842400  1
  C  496  1  0.61511400  0.83264300  0.59355700  1
  C  498  1  0.63789100  0.85347800  0.54016800  1
  C  499  1  0.59824600  0.79727600  0.61672600  1
  C  500  1  0.58525600  0.75063300  0.60981700  1
  C  501  1  0.56685900  0.71675300  0.63342200  1
  C  502  1  0.56133400  0.72871200  0.66417800  1
  C  503  1  0.57530000  0.77580900  0.67004900  1
  C  511  1  0.54744100  0.69604300  0.68890200  1
  C  512  1  0.63936700  0.92166600  0.51619400  1
  C  515  1  0.31837700  0.41980200  0.87692800  1
  C  516  1  0.33934600  0.43089800  0.90685190  1
  C  517  1  0.31911000  0.44224500  0.93165590  1
  C  518  1  0.27767700  0.44357500  0.92665690  1
  C  520  1  0.27545400  0.41881600  0.87374400  1
  C  521  1  0.25871800  0.46042300  0.94951390  1
  C  522  1  0.22407100  0.47194700  0.94236090  1
  C  523  1  0.20804300  0.49026700  0.96567590  1
  C  524  1  0.22595600  0.49715300  0.99637988  1
  C  525  1  0.26007600  0.48459500  0.00250600  1
  C  533  1  0.20692500  0.51119200  0.02086400  1
  C  534  1  0.34240900  0.41749300  0.85003000  1
  C  537  1  0.16199900  0.74100400  0.20985800  1
  C  538  1  0.15131800  0.72090300  0.24004600  1
  C  539  1  0.18244300  0.74156700  0.26503500  1
  C  540  1  0.22564200  0.78247500  0.25994900  1
  C  542  1  0.20423900  0.78362400  0.20657700  1
  C  543  1  0.26126500  0.80140300  0.28294400  1
  C  544  1  0.30759100  0.83577800  0.27589400  1
  C  545  1  0.34182500  0.85145000  0.29926900  1
  C  546  1  0.33056400  0.83342500  0.32993600  1
  C  547  1  0.28372700  0.79968800  0.33598500  1
  C  555  1  0.36364300  0.85191700  0.35444600  1
  C  556  1  0.13632800  0.71622400  0.18295400  1
  C  559  1  0.55500000  0.42176200  0.46818400  1
  C  560  1  0.51256600  0.42170100  0.47064600  1
  C  561  1  0.50877600  0.45334300  0.49036900  1
  C  562  1  0.54696800  0.48513000  0.50886900  1
  C  563  1  0.59038400  0.48732800  0.50438200  1
  C  564  1  0.59439700  0.45605600  0.48416800  1
  C  566  1  0.53058300  0.55372100  0.50941800  1
  C  567  1  0.56843700  0.58566000  0.49074100  1
  C  568  1  0.56428900  0.61745300  0.47139500  1
  C  569  1  0.52181200  0.61740800  0.46949700  1
  C  570  1  0.48272100  0.58302300  0.48568100  1
  C  571  1  0.48711300  0.55161800  0.50554100  1
  C  572  1  0.49476000  0.48827300  0.55768300  1
  C  573  1  0.58366200  0.55000800  0.55741000  1
  C  574  1  0.60260400  0.59848400  0.56240700  1
  C  575  1  0.64072300  0.62344800  0.58249900  1
  C  576  1  0.66108800  0.60062100  0.59798600  1
  C  577  1  0.64014100  0.55178600  0.59507300  1
  C  578  1  0.60156800  0.52676200  0.57547600  1
  C  579  1  0.47579700  0.43970900  0.56227600  1
  C  580  1  0.43799300  0.41449700  0.58255900  1
  C  581  1  0.41800200  0.43718200  0.59866300  1
  C  582  1  0.43899400  0.48606700  0.59614900  1
  C  583  1  0.47723900  0.51132000  0.57633000  1
  C  608  1  0.92469300  0.50250800  0.80229900  1
  C  609  1  0.96700700  0.54503400  0.80460700  1
  C  610  1  0.00279200  0.54894900  0.82401700  1
  C  611  1  0.99678200  0.51081000  0.84240800  1
  C  612  1  0.95558300  0.46732400  0.83810000  1
  C  613  1  0.91998000  0.46316400  0.81814300  1
  C  615  1  0.08176000  0.52718400  0.84213500  1
  C  616  1  0.07560900  0.48926400  0.82343200  1
  C  617  1  0.11116700  0.49346000  0.80365900  1
  C  618  1  0.15341800  0.53605200  0.80137500  1
  C  619  1  0.15833300  0.57515900  0.81763700  1
  C  620  1  0.12290800  0.57073400  0.83787600  1
  C  621  1  0.05314700  0.56323100  0.89080700  1
  C  622  1  0.02575000  0.47431100  0.89057400  1
  C  623  1  0.05521000  0.45520400  0.89523700  1
  C  624  1  0.04229600  0.41719100  0.91538880  1
  C  625  1  0.99941300  0.39708900  0.93125480  1
  C  626  1  0.97162100  0.41817700  0.92863780  1
  C  627  1  0.98493400  0.45663400  0.90897380  1
  C  628  1  0.02366000  0.58222000  0.89584300  1
  C  629  1  0.03678100  0.62019300  0.91606580  1
  C  630  1  0.07992500  0.64040300  0.93161180  1
  C  631  1  0.10774100  0.61938800  0.92866380  1
  C  632  1  0.09419100  0.58091600  0.90896880  1
  C  657  1  0.63758500  0.13398100  0.13557000  1
  C  658  1  0.63773000  0.09161700  0.13769100  1
  C  659  1  0.60594300  0.05578100  0.15711100  1
  C  660  1  0.57397000  0.06178500  0.17568600  1
  C  661  1  0.57176200  0.10306100  0.17157900  1
  C  662  1  0.60313200  0.13872700  0.15162900  1
  C  664  1  0.50534200  0.97675700  0.17540600  1
  C  665  1  0.47365900  0.98303300  0.15669400  1
  C  666  1  0.44211400  0.94745700  0.13700800  1
  C  667  1  0.44213200  0.90503200  0.13485400  1
  C  668  1  0.47624700  0.89998000  0.15111100  1
  C  669  1  0.50745700  0.93544000  0.17124000  1
  C  670  1  0.57014400  0.00526700  0.22396900  1
  C  671  1  0.50863700  0.03268400  0.22393100  1
  C  672  1  0.46004100  0.00332600  0.22854100  1
  C  673  1  0.43500300  0.01622200  0.24876300  1
  C  674  1  0.45788300  0.05900400  0.26473800  1
  C  675  1  0.50678000  0.08667600  0.26218300  1
  C  676  1  0.53186200  0.07336400  0.24245700  1
  C  677  1  0.61868800  0.03457400  0.22883500  1
  C  678  1  0.64353200  0.02138900  0.24902200  1
  C  679  1  0.62051900  0.97834900  0.26468700  1
  C  680  1  0.57164800  0.95071700  0.26189300  1
  C  681  1  0.54674700  0.96433200  0.24223300  1
  C  706  1  0.44032000  0.14144300  0.30953400  1
  C  707  1  0.45042300  0.13108000  0.33962000  1
  C  708  1  0.46143000  0.16248300  0.36450200  1
  C  709  1  0.46343500  0.20554500  0.35941700  1
  C  711  1  0.43986000  0.18363800  0.30626300  1
  C  712  1  0.48008700  0.24119100  0.38237600  1
  C  713  1  0.49279700  0.28766900  0.37515300  1
  C  714  1  0.51072900  0.32179900  0.39861400  1
  C  715  1  0.51601100  0.31023500  0.42953200  1
  C  716  1  0.50241800  0.26329900  0.43569600  1
  C  724  1  0.52928500  0.34306700  0.45410700  1
  C  725  1  0.43864200  0.11537200  0.28264300  1
  C  728  1  0.76090400  0.61813400  0.64303600  1
  C  729  1  0.74025300  0.60812900  0.67306300  1
  C  730  1  0.76038900  0.59706600  0.69807200  1
  C  731  1  0.80129100  0.59471800  0.69314600  1
  C  733  1  0.80344300  0.61830400  0.63993400  1
  C  734  1  0.81993500  0.57786100  0.71620800  1
  C  735  1  0.85352100  0.56484400  0.70914200  1
  C  736  1  0.86936600  0.54671900  0.73269900  1
  C  737  1  0.85231700  0.54150900  0.76356000  1
  C  738  1  0.81917500  0.55541600  0.76956700  1
  C  746  1  0.87158800  0.52809500  0.78823300  1
  C  747  1  0.73676600  0.61992800  0.61604000  1
  C  750  1  0.91711800  0.29751300  0.97637680  1
  C  751  1  0.92772100  0.31826400  0.00637400  1
  C  752  1  0.89638500  0.29830500  0.03133600  1
  C  753  1  0.85318400  0.25732800  0.02645600  1
  C  755  1  0.87468900  0.25503200  0.97328880  1
  C  756  1  0.81768400  0.23867000  0.04952900  1
  C  757  1  0.77114000  0.20486700  0.04249900  1
  C  758  1  0.73715900  0.18902400  0.06605000  1
  C  759  1  0.74892500  0.20629300  0.09686300  1
  C  760  1  0.79591400  0.23965300  0.10284000  1
  C  768  1  0.71620300  0.18717200  0.12153000  1
  C  769  1  0.94315700  0.32148100  0.94937180  1
  C  772  1  0.63812300  0.89605100  0.30984300  1
  C  773  1  0.62875800  0.90710800  0.33993900  1
  C  774  1  0.61787100  0.87609000  0.36504100  1
  C  775  1  0.61511400  0.83264300  0.36017400  1
  C  777  1  0.63789100  0.85347800  0.30678500  1
  C  778  1  0.59824600  0.79727600  0.38334300  1
  C  779  1  0.58525600  0.75063300  0.37643400  1
  C  780  1  0.56685900  0.71675300  0.40003900  1
  C  781  1  0.56133400  0.72871200  0.43079500  1
  C  782  1  0.57530000  0.77580900  0.43666600  1
  C  790  1  0.54744100  0.69604300  0.45551900  1
  C  791  1  0.63936700  0.92166600  0.28281100  1
  C  794  1  0.31837700  0.41980200  0.64354500  1
  C  795  1  0.33934600  0.43089800  0.67346900  1
  C  796  1  0.31911000  0.44224500  0.69827300  1
  C  797  1  0.27767700  0.44357500  0.69327400  1
  C  799  1  0.27545400  0.41881600  0.64036100  1
  C  800  1  0.25871800  0.46042300  0.71613100  1
  C  801  1  0.22407100  0.47194700  0.70897800  1
  C  802  1  0.20804300  0.49026700  0.73229300  1
  C  803  1  0.22595600  0.49715300  0.76299700  1
  C  804  1  0.26007600  0.48459500  0.76912300  1
  C  812  1  0.20692500  0.51119200  0.78748100  1
  C  813  1  0.34240900  0.41749300  0.61664700  1
  C  816  1  0.16199900  0.74100400  0.97647480  1
  C  817  1  0.15131800  0.72090300  0.00666300  1
  C  818  1  0.18244300  0.74156700  0.03165200  1
  C  819  1  0.22564200  0.78247500  0.02656600  1
  C  821  1  0.20423900  0.78362400  0.97319380  1
  C  822  1  0.26126500  0.80140300  0.04956100  1
  C  823  1  0.30759100  0.83577800  0.04251100  1
  C  824  1  0.34182500  0.85145000  0.06588600  1
  C  825  1  0.33056400  0.83342500  0.09655300  1
  C  826  1  0.28372700  0.79968800  0.10260200  1
  C  834  1  0.36364300  0.85191700  0.12106300  1
  C  835  1  0.13632800  0.71622400  0.94957080  1
  C  838  1  0.55500000  0.42176200  0.23480100  1
  C  839  1  0.51256600  0.42170100  0.23726300  1
  C  840  1  0.50877600  0.45334300  0.25698600  1
  C  841  1  0.54696800  0.48513000  0.27548600  1
  C  842  1  0.59038400  0.48732800  0.27099900  1
  C  843  1  0.59439700  0.45605600  0.25078500  1
  C  845  1  0.53058300  0.55372100  0.27603500  1
  C  846  1  0.56843700  0.58566000  0.25735800  1
  C  847  1  0.56428900  0.61745300  0.23801200  1
  C  848  1  0.52181200  0.61740800  0.23611400  1
  C  849  1  0.48272100  0.58302300  0.25229800  1
  C  850  1  0.48711300  0.55161800  0.27215800  1
  C  851  1  0.49476000  0.48827300  0.32430000  1
  C  852  1  0.58366200  0.55000800  0.32402700  1
  C  853  1  0.60260400  0.59848400  0.32902400  1
  C  854  1  0.64072300  0.62344800  0.34911600  1
  C  855  1  0.66108800  0.60062100  0.36460300  1
  C  856  1  0.64014100  0.55178600  0.36169000  1
  C  857  1  0.60156800  0.52676200  0.34209300  1
  C  858  1  0.47579700  0.43970900  0.32889300  1
  C  859  1  0.43799300  0.41449700  0.34917600  1
  C  860  1  0.41800200  0.43718200  0.36528000  1
  C  861  1  0.43899400  0.48606700  0.36276600  1
  C  862  1  0.47723900  0.51132000  0.34294700  1
  C  887  1  0.92469300  0.50250800  0.56891600  1
  C  888  1  0.96700700  0.54503400  0.57122400  1
  C  889  1  0.00279200  0.54894900  0.59063400  1
  C  890  1  0.99678200  0.51081000  0.60902500  1
  C  891  1  0.95558300  0.46732400  0.60471700  1
  C  892  1  0.91998000  0.46316400  0.58476000  1
  C  894  1  0.08176000  0.52718400  0.60875200  1
  C  895  1  0.07560900  0.48926400  0.59004900  1
  C  896  1  0.11116700  0.49346000  0.57027600  1
  C  897  1  0.15341800  0.53605200  0.56799200  1
  C  898  1  0.15833300  0.57515900  0.58425400  1
  C  899  1  0.12290800  0.57073400  0.60449300  1
  C  900  1  0.05314700  0.56323100  0.65742400  1
  C  901  1  0.02575000  0.47431100  0.65719100  1
  C  902  1  0.05521000  0.45520400  0.66185400  1
  C  903  1  0.04229600  0.41719100  0.68200600  1
  C  904  1  0.99941300  0.39708900  0.69787200  1
  C  905  1  0.97162100  0.41817700  0.69525500  1
  C  906  1  0.98493400  0.45663400  0.67559100  1
  C  907  1  0.02366000  0.58222000  0.66246000  1
  C  908  1  0.03678100  0.62019300  0.68268300  1
  C  909  1  0.07992500  0.64040300  0.69822900  1
  C  910  1  0.10774100  0.61938800  0.69528100  1
  C  911  1  0.09419100  0.58091600  0.67558600  1
  C  936  1  0.63758500  0.13398100  0.90218660  1
  C  937  1  0.63773000  0.09161700  0.90430760  1
  C  938  1  0.60594300  0.05578100  0.92372760  1
  C  939  1  0.57397000  0.06178500  0.94230260  1
  C  940  1  0.57176200  0.10306100  0.93819560  1
  C  941  1  0.60313200  0.13872700  0.91824560  1
  C  943  1  0.50534200  0.97675700  0.94202260  1
  C  944  1  0.47365900  0.98303300  0.92331060  1
  C  945  1  0.44211400  0.94745700  0.90362460  1
  C  946  1  0.44213200  0.90503200  0.90147060  1
  C  947  1  0.47624700  0.89998000  0.91772760  1
  C  948  1  0.50745700  0.93544000  0.93785660  1
  C  949  1  0.57014400  0.00526700  0.99058563  1
  C  950  1  0.50863700  0.03268400  0.99054763  1
  C  951  1  0.46004100  0.00332600  0.99515763  1
  C  952  1  0.43500300  0.01622200  0.01538000  1
  C  953  1  0.45788300  0.05900400  0.03135500  1
  C  954  1  0.50678000  0.08667600  0.02880000  1
  C  955  1  0.53186200  0.07336400  0.00907400  1
  C  956  1  0.61868800  0.03457400  0.99545163  1
  C  957  1  0.64353200  0.02138900  0.01563900  1
  C  958  1  0.62051900  0.97834900  0.03130400  1
  C  959  1  0.57164800  0.95071700  0.02851000  1
  C  960  1  0.54674700  0.96433200  0.00885000  1
  C  985  1  0.44032000  0.14144300  0.07615100  1
  C  986  1  0.45042300  0.13108000  0.10623700  1
  C  987  1  0.46143000  0.16248300  0.13111900  1
  C  988  1  0.46343500  0.20554500  0.12603400  1
  C  990  1  0.43986000  0.18363800  0.07288000  1
  C  991  1  0.48008700  0.24119100  0.14899300  1
  C  992  1  0.49279700  0.28766900  0.14177000  1
  C  993  1  0.51072900  0.32179900  0.16523100  1
  C  994  1  0.51601100  0.31023500  0.19614900  1
  C  995  1  0.50241800  0.26329900  0.20231300  1
  C  1003  1  0.52928500  0.34306700  0.22072400  1
  C  1004  1  0.43864200  0.11537200  0.04926000  1
  C  1007  1  0.76090400  0.61813400  0.40965300  1
  C  1008  1  0.74025300  0.60812900  0.43968000  1
  C  1009  1  0.76038900  0.59706600  0.46468900  1
  C  1010  1  0.80129100  0.59471800  0.45976300  1
  C  1012  1  0.80344300  0.61830400  0.40655100  1
  C  1013  1  0.81993500  0.57786100  0.48282500  1
  C  1014  1  0.85352100  0.56484400  0.47575900  1
  C  1015  1  0.86936600  0.54671900  0.49931600  1
  C  1016  1  0.85231700  0.54150900  0.53017700  1
  C  1017  1  0.81917500  0.55541600  0.53618400  1
  C  1025  1  0.87158800  0.52809500  0.55485000  1
  C  1026  1  0.73676600  0.61992800  0.38265700  1
  C  1029  1  0.91711800  0.29751300  0.74299400  1
  C  1030  1  0.92772100  0.31826400  0.77299100  1
  C  1031  1  0.89638500  0.29830500  0.79795300  1
  C  1032  1  0.85318400  0.25732800  0.79307300  1
  C  1034  1  0.87468900  0.25503200  0.73990600  1
  C  1035  1  0.81768400  0.23867000  0.81614600  1
  C  1036  1  0.77114000  0.20486700  0.80911600  1
  C  1037  1  0.73715900  0.18902400  0.83266700  1
  C  1038  1  0.74892500  0.20629300  0.86348000  1
  C  1039  1  0.79591400  0.23965300  0.86945700  1
  C  1047  1  0.71620300  0.18717200  0.88814700  1
  C  1048  1  0.94315700  0.32148100  0.71598900  1
  C  1051  1  0.63812300  0.89605100  0.07646000  1
  C  1052  1  0.62875800  0.90710800  0.10655600  1
  C  1053  1  0.61787100  0.87609000  0.13165800  1
  C  1054  1  0.61511400  0.83264300  0.12679100  1
  C  1056  1  0.63789100  0.85347800  0.07340200  1
  C  1057  1  0.59824600  0.79727600  0.14996000  1
  C  1058  1  0.58525600  0.75063300  0.14305100  1
  C  1059  1  0.56685900  0.71675300  0.16665600  1
  C  1060  1  0.56133400  0.72871200  0.19741200  1
  C  1061  1  0.57530000  0.77580900  0.20328300  1
  C  1069  1  0.54744100  0.69604300  0.22213600  1
  C  1070  1  0.63936700  0.92166600  0.04942800  1
  C  1073  1  0.31837700  0.41980200  0.41016200  1
  C  1074  1  0.33934600  0.43089800  0.44008600  1
  C  1075  1  0.31911000  0.44224500  0.46489000  1
  C  1076  1  0.27767700  0.44357500  0.45989100  1
  C  1078  1  0.27545400  0.41881600  0.40697800  1
  C  1079  1  0.25871800  0.46042300  0.48274800  1
  C  1080  1  0.22407100  0.47194700  0.47559500  1
  C  1081  1  0.20804300  0.49026700  0.49891000  1
  C  1082  1  0.22595600  0.49715300  0.52961400  1
  C  1083  1  0.26007600  0.48459500  0.53574000  1
  C  1091  1  0.20692500  0.51119200  0.55409800  1
  C  1092  1  0.34240900  0.41749300  0.38326400  1
  C  1095  1  0.16199900  0.74100400  0.74309200  1
  C  1096  1  0.15131800  0.72090300  0.77328000  1
  C  1097  1  0.18244300  0.74156700  0.79826900  1
  C  1098  1  0.22564200  0.78247500  0.79318300  1
  C  1100  1  0.20423900  0.78362400  0.73981100  1
  C  1101  1  0.26126500  0.80140300  0.81617800  1
  C  1102  1  0.30759100  0.83577800  0.80912800  1
  C  1103  1  0.34182500  0.85145000  0.83250300  1
  C  1104  1  0.33056400  0.83342500  0.86317000  1
  C  1105  1  0.28372700  0.79968800  0.86921900  1
  C  1113  1  0.36364300  0.85191700  0.88768000  1
  C  1114  1  0.13632800  0.71622400  0.71618800  1
  N  42  1  0.69826600  0.62460500  0.08408800  1
  N  44  1  0.38093100  0.41285800  0.08479200  1
  N  46  1  0.51888800  0.64944500  0.91808600  1
  N  48  1  0.55749700  0.38969400  0.91655100  1
  N  91  1  0.98637400  0.35995000  0.41736600  1
  N  93  1  0.09325500  0.67759700  0.41772100  1
  N  95  1  0.18816700  0.53907300  0.24969900  1
  N  97  1  0.88991400  0.49978700  0.25078600  1
  N  140  1  0.43383600  0.07214000  0.75081200  1
  N  142  1  0.64435600  0.96497500  0.75078600  1
  N  144  1  0.41022500  0.87023900  0.58328000  1
  N  146  1  0.66956900  0.16882700  0.58406400  1
  N  152  1  0.45199600  0.21364300  0.79729400  1
  N  159  1  0.48575600  0.23145200  0.87914700  1
  N  174  1  0.82098300  0.60597800  0.13106100  1
  N  181  1  0.80433700  0.57227100  0.21292900  1
  N  196  1  0.84480700  0.23752200  0.46440900  1
  N  203  1  0.82761800  0.25447700  0.54620700  1
  N  218  1  0.62581800  0.82383300  0.79802200  1
  N  225  1  0.59239700  0.80740400  0.87997800  1
  N  240  1  0.25770900  0.43126000  0.13130800  1
  N  247  1  0.27506300  0.46752900  0.21271000  1
  N  262  1  0.23404600  0.80165700  0.46431800  1
  N  269  1  0.25178600  0.78501300  0.54612600  1
  N  321  1  0.69826600  0.62460500  0.85070500  1
  N  323  1  0.38093100  0.41285800  0.85140900  1
  N  325  1  0.51888800  0.64944500  0.68470300  1
  N  327  1  0.55749700  0.38969400  0.68316800  1
  N  370  1  0.98637400  0.35995000  0.18398300  1
  N  372  1  0.09325500  0.67759700  0.18433800  1
  N  374  1  0.18816700  0.53907300  0.01631600  1
  N  376  1  0.88991400  0.49978700  0.01740300  1
  N  419  1  0.43383600  0.07214000  0.51742900  1
  N  421  1  0.64435600  0.96497500  0.51740300  1
  N  423  1  0.41022500  0.87023900  0.34989700  1
  N  425  1  0.66956900  0.16882700  0.35068100  1
  N  431  1  0.45199600  0.21364300  0.56391100  1
  N  438  1  0.48575600  0.23145200  0.64576400  1
  N  453  1  0.82098300  0.60597800  0.89767800  1
  N  460  1  0.80433700  0.57227100  0.97954590  1
  N  475  1  0.84480700  0.23752200  0.23102600  1
  N  482  1  0.82761800  0.25447700  0.31282400  1
  N  497  1  0.62581800  0.82383300  0.56463900  1
  N  504  1  0.59239700  0.80740400  0.64659500  1
  N  519  1  0.25770900  0.43126000  0.89792500  1
  N  526  1  0.27506300  0.46752900  0.97932690  1
  N  541  1  0.23404600  0.80165700  0.23093500  1
  N  548  1  0.25178600  0.78501300  0.31274300  1
  N  600  1  0.69826600  0.62460500  0.61732200  1
  N  602  1  0.38093100  0.41285800  0.61802600  1
  N  604  1  0.51888800  0.64944500  0.45132000  1
  N  606  1  0.55749700  0.38969400  0.44978500  1
  N  649  1  0.98637400  0.35995000  0.95059980  1
  N  651  1  0.09325500  0.67759700  0.95095480  1
  N  653  1  0.18816700  0.53907300  0.78293300  1
  N  655  1  0.88991400  0.49978700  0.78402000  1
  N  698  1  0.43383600  0.07214000  0.28404600  1
  N  700  1  0.64435600  0.96497500  0.28402000  1
  N  702  1  0.41022500  0.87023900  0.11651400  1
  N  704  1  0.66956900  0.16882700  0.11729800  1
  N  710  1  0.45199600  0.21364300  0.33052800  1
  N  717  1  0.48575600  0.23145200  0.41238100  1
  N  732  1  0.82098300  0.60597800  0.66429500  1
  N  739  1  0.80433700  0.57227100  0.74616300  1
  N  754  1  0.84480700  0.23752200  0.99764276  1
  N  761  1  0.82761800  0.25447700  0.07944100  1
  N  776  1  0.62581800  0.82383300  0.33125600  1
  N  783  1  0.59239700  0.80740400  0.41321200  1
  N  798  1  0.25770900  0.43126000  0.66454200  1
  N  805  1  0.27506300  0.46752900  0.74594400  1
  N  820  1  0.23404600  0.80165700  0.99755176  1
  N  827  1  0.25178600  0.78501300  0.07936000  1
  N  879  1  0.69826600  0.62460500  0.38393900  1
  N  881  1  0.38093100  0.41285800  0.38464300  1
  N  883  1  0.51888800  0.64944500  0.21793700  1
  N  885  1  0.55749700  0.38969400  0.21640200  1
  N  928  1  0.98637400  0.35995000  0.71721700  1
  N  930  1  0.09325500  0.67759700  0.71757200  1
  N  932  1  0.18816700  0.53907300  0.54955000  1
  N  934  1  0.88991400  0.49978700  0.55063700  1
  N  977  1  0.43383600  0.07214000  0.05066300  1
  N  979  1  0.64435600  0.96497500  0.05063700  1
  N  981  1  0.41022500  0.87023900  0.88313100  1
  N  983  1  0.66956900  0.16882700  0.88391500  1
  N  989  1  0.45199600  0.21364300  0.09714500  1
  N  996  1  0.48575600  0.23145200  0.17899800  1
  N  1011  1  0.82098300  0.60597800  0.43091200  1
  N  1018  1  0.80433700  0.57227100  0.51278000  1
  N  1033  1  0.84480700  0.23752200  0.76426000  1
  N  1040  1  0.82761800  0.25447700  0.84605800  1
  N  1055  1  0.62581800  0.82383300  0.09787300  1
  N  1062  1  0.59239700  0.80740400  0.17982900  1
  N  1077  1  0.25770900  0.43126000  0.43115900  1
  N  1084  1  0.27506300  0.46752900  0.51256100  1
  N  1099  1  0.23404600  0.80165700  0.76416900  1
  N  1106  1  0.25178600  0.78501300  0.84597700  1
  O  168  1  0.45262200  0.13863300  0.72191000  1
  O  169  1  0.50732700  0.32735400  0.94864900  1
  O  190  1  0.74582700  0.60526500  0.05550800  1
  O  191  1  0.87800900  0.55029300  0.28269700  1
  O  212  1  0.91961300  0.31225500  0.38875500  1
  O  213  1  0.73195600  0.18122700  0.61614500  1
  O  234  1  0.62458800  0.89788000  0.72231100  1
  O  235  1  0.56904100  0.71177900  0.95016500  1
  O  256  1  0.33248900  0.43044700  0.05573200  1
  O  257  1  0.20252300  0.49118700  0.28258500  1
  O  278  1  0.16013300  0.72499800  0.38908900  1
  O  279  1  0.34818300  0.85657200  0.61615500  1
  O  447  1  0.45262200  0.13863300  0.48852700  1
  O  448  1  0.50732700  0.32735400  0.71526600  1
  O  469  1  0.74582700  0.60526500  0.82212500  1
  O  470  1  0.87800900  0.55029300  0.04931400  1
  O  491  1  0.91961300  0.31225500  0.15537200  1
  O  492  1  0.73195600  0.18122700  0.38276200  1
  O  513  1  0.62458800  0.89788000  0.48892800  1
  O  514  1  0.56904100  0.71177900  0.71678200  1
  O  535  1  0.33248900  0.43044700  0.82234900  1
  O  536  1  0.20252300  0.49118700  0.04920200  1
  O  557  1  0.16013300  0.72499800  0.15570600  1
  O  558  1  0.34818300  0.85657200  0.38277200  1
  O  726  1  0.45262200  0.13863300  0.25514400  1
  O  727  1  0.50732700  0.32735400  0.48188300  1
  O  748  1  0.74582700  0.60526500  0.58874200  1
  O  749  1  0.87800900  0.55029300  0.81593100  1
  O  770  1  0.91961300  0.31225500  0.92198880  1
  O  771  1  0.73195600  0.18122700  0.14937900  1
  O  792  1  0.62458800  0.89788000  0.25554500  1
  O  793  1  0.56904100  0.71177900  0.48339900  1
  O  814  1  0.33248900  0.43044700  0.58896600  1
  O  815  1  0.20252300  0.49118700  0.81581900  1
  O  836  1  0.16013300  0.72499800  0.92232280  1
  O  837  1  0.34818300  0.85657200  0.14938900  1
  O  1005  1  0.45262200  0.13863300  0.02176100  1
  O  1006  1  0.50732700  0.32735400  0.24850000  1
  O  1027  1  0.74582700  0.60526500  0.35535900  1
  O  1028  1  0.87800900  0.55029300  0.58254800  1
  O  1049  1  0.91961300  0.31225500  0.68860600  1
  O  1050  1  0.73195600  0.18122700  0.91599560  1
  O  1071  1  0.62458800  0.89788000  0.02216200  1
  O  1072  1  0.56904100  0.71177900  0.25001600  1
  O  1093  1  0.33248900  0.43044700  0.35558300  1
  O  1094  1  0.20252300  0.49118700  0.58243600  1
  O  1115  1  0.16013300  0.72499800  0.68894000  1
  O  1116  1  0.34818300  0.85657200  0.91600560  1
