# generated using pymatgen
data_H30C45N7
_symmetry_space_group_name_H-M   'P 1'
_cell_length_a   68.79680000
_cell_length_b   68.79680000
_cell_length_c   68.79680000
_cell_angle_alpha   90.00000000
_cell_angle_beta   90.00000000
_cell_angle_gamma   90.00000000
_symmetry_Int_Tables_number   1
_chemical_formula_structural   H30C45N7
_chemical_formula_sum   'H360 C540 N84'
_cell_volume   325615.23308950
_cell_formula_units_Z   12
loop_
 _symmetry_equiv_pos_site_id
 _symmetry_equiv_pos_as_xyz
  1  'x, y, z'
loop_
 _atom_site_type_symbol
 _atom_site_label
 _atom_site_symmetry_multiplicity
 _atom_site_fract_x
 _atom_site_fract_y
 _atom_site_fract_z
 _atom_site_occupancy
  H  73  1  0.98559600  0.33711500  0.50194100  1
  H  74  1  0.98519600  0.37167100  0.50178900  1
  H  75  1  0.04381100  0.33765200  0.52095200  1
  H  76  1  0.04335300  0.37229500  0.52146900  1
  H  77  1  0.04282000  0.40086300  0.50129100  1
  H  78  1  0.04257300  0.43550300  0.50166600  1
  H  79  1  0.98500000  0.40034700  0.52198500  1
  H  80  1  0.98450200  0.43498500  0.52123700  1
  H  81  1  0.01271000  0.44553800  0.47226800  1
  H  82  1  0.01320200  0.47132400  0.44617200  1
  H  83  1  0.01314200  0.49855100  0.49890600  1
  H  84  1  0.01349000  0.52273400  0.52295500  1
  H  85  1  0.01587900  0.44540300  0.55064200  1
  H  86  1  0.01596500  0.47157000  0.57659700  1
  H  87  1  0.04302800  0.51972200  0.58628800  1
  H  88  1  0.04308200  0.52029500  0.62104400  1
  H  89  1  0.98431100  0.50214000  0.58660400  1
  H  90  1  0.98428300  0.50270100  0.62133100  1
  H  91  1  0.01312500  0.54994300  0.57569700  1
  H  92  1  0.01357100  0.57575400  0.54958800  1
  H  93  1  0.01091100  0.54975200  0.44526800  1
  H  94  1  0.01110100  0.57590800  0.47123700  1
  H  95  1  0.98402300  0.58623100  0.51897000  1
  H  96  1  0.98414000  0.62097800  0.51861100  1
  H  97  1  0.04286600  0.58579300  0.50178900  1
  H  98  1  0.04306200  0.62054400  0.50140400  1
  H  99  1  0.02800300  0.64848100  0.48246600  1
  H  100  1  0.02790600  0.68321700  0.48190800  1
  H  101  1  0.99870200  0.68398500  0.53577500  1
  H  102  1  0.99911600  0.64936800  0.53659900  1
  H  103  1  0.04232600  0.51983700  0.43558900  1
  H  104  1  0.04260000  0.52004200  0.40096100  1
  H  105  1  0.98497200  0.51991700  0.37160700  1
  H  106  1  0.98544600  0.51963900  0.33705200  1
  H  107  1  0.04352600  0.50025200  0.33781700  1
  H  108  1  0.04297700  0.49985200  0.37244200  1
  H  109  1  0.98454000  0.50007000  0.40049800  1
  H  110  1  0.98404300  0.50095700  0.43514200  1
  H  111  1  0.99901900  0.48511700  0.64992600  1
  H  112  1  0.99826500  0.48623100  0.68452800  1
  H  113  1  0.02790700  0.53923900  0.64888200  1
  H  114  1  0.02749100  0.54006700  0.68362100  1
  H  191  1  0.48592500  0.99858200  0.33688300  1
  H  192  1  0.48481200  0.99932900  0.37148500  1
  H  193  1  0.53998000  0.02740200  0.33781200  1
  H  194  1  0.53915200  0.02780600  0.37254600  1
  H  195  1  0.52037500  0.04308600  0.40040400  1
  H  196  1  0.52001100  0.04293800  0.43516100  1
  H  197  1  0.50227900  0.98444000  0.40006100  1
  H  198  1  0.50192000  0.98437600  0.43478900  1
  H  199  1  0.47209800  0.01695700  0.44549900  1
  H  200  1  0.44599800  0.01683900  0.47135100  1
  H  201  1  0.49853900  0.01053400  0.49827300  1
  H  202  1  0.52260000  0.01594600  0.52261500  1
  H  203  1  0.55036700  0.01313100  0.44511400  1
  H  204  1  0.57628100  0.01380400  0.47128900  1
  H  205  1  0.58587300  0.04256300  0.52009800  1
  H  206  1  0.62061500  0.04255500  0.52083500  1
  H  207  1  0.58616500  0.98407900  0.50175200  1
  H  208  1  0.62089800  0.98398600  0.50248400  1
  H  209  1  0.57514900  0.00961800  0.54951600  1
  H  210  1  0.54905800  0.00948200  0.57537400  1
  H  211  1  0.44488300  0.01270800  0.54961400  1
  H  212  1  0.47077300  0.01350200  0.57577300  1
  H  213  1  0.50035600  0.98426700  0.58626700  1
  H  214  1  0.49975600  0.98477400  0.62091900  1
  H  215  1  0.52017000  0.04224100  0.58567100  1
  H  216  1  0.52062900  0.04251200  0.62030200  1
  H  217  1  0.50041300  0.04319600  0.64887000  1
  H  218  1  0.50082900  0.04376000  0.68349900  1
  H  219  1  0.51956200  0.98546200  0.68427800  1
  H  220  1  0.51979600  0.98496200  0.64972800  1
  H  221  1  0.43535900  0.04245500  0.51995000  1
  H  222  1  0.40072400  0.04276500  0.52016500  1
  H  223  1  0.37143700  0.98515400  0.51944300  1
  H  224  1  0.33687900  0.98559400  0.51931500  1
  H  225  1  0.33750600  0.04388300  0.50054100  1
  H  226  1  0.37213400  0.04337600  0.50000400  1
  H  227  1  0.40019000  0.98501700  0.49930500  1
  H  228  1  0.43483300  0.98447000  0.50016000  1
  H  229  1  0.64950300  0.99895700  0.48509400  1
  H  230  1  0.68410500  0.99825200  0.48618000  1
  H  231  1  0.64843700  0.02719300  0.53956200  1
  H  232  1  0.68317600  0.02683200  0.54036200  1
  H  309  1  0.33690100  0.48592200  0.99862100  1
  H  310  1  0.37150300  0.48480800  0.99935300  1
  H  311  1  0.33784000  0.53996900  0.02745700  1
  H  312  1  0.37257600  0.53913900  0.02784700  1
  H  313  1  0.40043400  0.52034100  0.04312000  1
  H  314  1  0.43519200  0.51997200  0.04296300  1
  H  315  1  0.40007400  0.50228900  0.98446000  1
  H  316  1  0.43480200  0.50192600  0.98438800  1
  H  317  1  0.44551100  0.47207600  0.01694000  1
  H  318  1  0.47135500  0.44596700  0.01680900  1
  H  319  1  0.49829100  0.49851000  0.01056700  1
  H  320  1  0.52262000  0.52259300  0.01595400  1
  H  321  1  0.44513000  0.55034700  0.01318600  1
  H  322  1  0.47129700  0.57626800  0.01385800  1
  H  323  1  0.52017700  0.58588600  0.04255700  1
  H  324  1  0.52090700  0.62062600  0.04255500  1
  H  325  1  0.50169400  0.58618900  0.98412000  1
  H  326  1  0.50242000  0.62091900  0.98403300  1
  H  327  1  0.54953600  0.57514200  0.00966200  1
  H  328  1  0.57538600  0.54903900  0.00951800  1
  H  329  1  0.54962900  0.44485500  0.01280100  1
  H  330  1  0.57577800  0.47075700  0.01358500  1
  H  331  1  0.58627500  0.50033600  0.98430300  1
  H  332  1  0.62092400  0.49973800  0.98481900  1
  H  333  1  0.58565700  0.52014500  0.04227700  1
  H  334  1  0.62028900  0.52060400  0.04256100  1
  H  335  1  0.64885900  0.50038200  0.04324600  1
  H  336  1  0.68348700  0.50079700  0.04382100  1
  H  337  1  0.68428300  0.51955600  0.98553200  1
  H  338  1  0.64973400  0.51978900  0.98502100  1
  H  339  1  0.51988900  0.43529800  0.04250500  1
  H  340  1  0.52009100  0.40066300  0.04280900  1
  H  341  1  0.51949400  0.37136500  0.98518900  1
  H  342  1  0.51933500  0.33680600  0.98562300  1
  H  343  1  0.50042900  0.33744200  0.04386600  1
  H  344  1  0.49993000  0.37207000  0.04336500  1
  H  345  1  0.49938700  0.40014800  0.98500700  1
  H  346  1  0.50024000  0.43479100  0.98447600  1
  H  347  1  0.48510600  0.64954100  0.99897400  1
  H  348  1  0.48618100  0.68414200  0.99828100  1
  H  349  1  0.53956300  0.64848200  0.02721900  1
  H  350  1  0.54035400  0.68321900  0.02687000  1
  H  427  1  0.49997800  0.83647700  0.98564500  1
  H  428  1  0.50062400  0.87120500  0.98410000  1
  H  429  1  0.52438600  0.83837600  0.04177400  1
  H  430  1  0.52499500  0.87313200  0.04037200  1
  H  431  1  0.54224300  0.90049400  0.02071700  1
  H  432  1  0.54211400  0.93525900  0.02004500  1
  H  433  1  0.48385700  0.89996600  0.00187200  1
  H  434  1  0.48369400  0.93474100  0.00150200  1
  H  435  1  0.51300100  0.94564300  0.97158800  1
  H  436  1  0.51225900  0.97158800  0.94564200  1
  H  437  1  0.51224200  0.99850900  0.99851300  1
  H  438  1  0.51251200  0.02264900  0.02263800  1
  H  439  1  0.51256300  0.94508300  0.05009700  1
  H  440  1  0.51298200  0.97112400  0.07611000  1
  H  441  1  0.54183800  0.02014200  0.08581200  1
  H  442  1  0.54196300  0.02104000  0.12057800  1
  H  443  1  0.48354600  0.00119400  0.08645400  1
  H  444  1  0.48370400  0.00179400  0.12122500  1
  H  445  1  0.51181200  0.04960200  0.07549800  1
  H  446  1  0.51208200  0.07553300  0.04955100  1
  H  447  1  0.51219300  0.05006800  0.94505000  1
  H  448  1  0.51176100  0.07610500  0.97109300  1
  H  449  1  0.48268500  0.08604000  0.01922000  1
  H  450  1  0.48261000  0.12080900  0.01936200  1
  H  451  1  0.54144500  0.08618300  0.00177500  1
  H  452  1  0.54138300  0.12095000  0.00172100  1
  H  453  1  0.52505800  0.14879900  0.98266800  1
  H  454  1  0.52454100  0.18355400  0.98223100  1
  H  455  1  0.49771500  0.18390800  0.03729500  1
  H  456  1  0.49836300  0.14919000  0.03791100  1
  H  457  1  0.54150900  0.00201600  0.93501200  1
  H  458  1  0.54145000  0.00174300  0.90024400  1
  H  459  1  0.49826600  0.03768600  0.87184600  1
  H  460  1  0.49761500  0.03697300  0.83713500  1
  H  461  1  0.52477300  0.98207500  0.83763100  1
  H  462  1  0.52529100  0.98260800  0.87238500  1
  H  463  1  0.48263600  0.01924000  0.90027300  1
  H  464  1  0.48271200  0.01931800  0.93503500  1
  H  465  1  0.50069800  0.98415900  0.14994000  1
  H  466  1  0.50006300  0.98573400  0.18466300  1
  H  467  1  0.52455100  0.04065500  0.14793100  1
  H  468  1  0.52395800  0.04208700  0.18269000  1
  H  545  1  0.98580000  0.49986100  0.83680200  1
  H  546  1  0.98421600  0.50052800  0.87152800  1
  H  547  1  0.04190500  0.52432400  0.83874600  1
  H  548  1  0.04046500  0.52495500  0.87350000  1
  H  549  1  0.02074800  0.54220400  0.90082300  1
  H  550  1  0.02004400  0.54208900  0.93558900  1
  H  551  1  0.00199500  0.48378600  0.90031000  1
  H  552  1  0.00158900  0.48364000  0.93508300  1
  H  553  1  0.97162800  0.51296100  0.94595000  1
  H  554  1  0.94566900  0.51222600  0.97188300  1
  H  555  1  0.99853100  0.51222300  0.99882900  1
  H  556  1  0.02265000  0.51248900  0.02297300  1
  H  557  1  0.05013300  0.51254600  0.94542100  1
  H  558  1  0.07613900  0.51297300  0.97146700  1
  H  559  1  0.08583100  0.54182000  0.02046900  1
  H  560  1  0.12059700  0.54195700  0.02133100  1
  H  561  1  0.08647400  0.48352400  0.00153200  1
  H  562  1  0.12124300  0.48369400  0.00209800  1
  H  563  1  0.07550000  0.51180900  0.04994600  1
  H  564  1  0.04954300  0.51207900  0.07586700  1
  H  565  1  0.94504900  0.51216100  0.05036500  1
  H  566  1  0.97108500  0.51173500  0.07641000  1
  H  567  1  0.01921700  0.48267500  0.08636700  1
  H  568  1  0.01934500  0.48260400  0.12113500  1
  H  569  1  0.00175200  0.54142900  0.08649300  1
  H  570  1  0.00168300  0.54137300  0.12125900  1
  H  571  1  0.98263000  0.52504300  0.14910400  1
  H  572  1  0.98217700  0.52453500  0.18385700  1
  H  573  1  0.03724600  0.49771800  0.18424400  1
  H  574  1  0.03787700  0.49835800  0.14952600  1
  H  575  1  0.93503200  0.54149000  0.00229800  1
  H  576  1  0.90026400  0.54143100  0.00198100  1
  H  577  1  0.87182000  0.49824300  0.03788600  1
  H  578  1  0.83711200  0.49759200  0.03713100  1
  H  579  1  0.83767300  0.52475900  0.98223900  1
  H  580  1  0.87242600  0.52527500  0.98281300  1
  H  581  1  0.90027200  0.48262000  0.01948400  1
  H  582  1  0.93503400  0.48269400  0.01960500  1
  H  583  1  0.14992700  0.50069300  0.98441800  1
  H  584  1  0.18465300  0.50006700  0.98594700  1
  H  585  1  0.14798800  0.52455900  0.04091000  1
  H  586  1  0.18275000  0.52397500  0.04229600  1
  H  663  1  0.83647800  0.98426700  0.50288100  1
  H  664  1  0.87117400  0.98280200  0.50363800  1
  H  665  1  0.83839400  0.04270400  0.52109600  1
  H  666  1  0.87313200  0.04140800  0.52170000  1
  H  667  1  0.90062100  0.02454000  0.54057300  1
  H  668  1  0.93536400  0.02392900  0.54041800  1
  H  669  1  0.89996600  0.99782100  0.48534200  1
  H  670  1  0.93472000  0.99734000  0.48519700  1
  H  671  1  0.94617100  0.97202700  0.51989500  1
  H  672  1  0.97224500  0.94603700  0.51975000  1
  H  673  1  0.99823000  0.99819600  0.50838600  1
  H  674  1  0.02298300  0.02280500  0.50799200  1
  H  675  1  0.94548200  0.04950000  0.50593100  1
  H  676  1  0.97162400  0.07554200  0.50592800  1
  H  677  1  0.99718000  0.08550000  0.54042500  1
  H  678  1  0.99707900  0.12013300  0.54081500  1
  H  679  1  0.02409500  0.08608300  0.48537400  1
  H  680  1  0.02499500  0.12071200  0.48612300  1
  H  681  1  0.04894500  0.07474600  0.52037600  1
  H  682  1  0.07500300  0.04876100  0.52012200  1
  H  683  1  0.04959900  0.94535500  0.50589100  1
  H  684  1  0.07573700  0.97142200  0.50575900  1
  H  685  1  0.08597900  0.02339400  0.48441500  1
  H  686  1  0.12072300  0.02347400  0.48427700  1
  H  687  1  0.08619700  0.99758300  0.54000800  1
  H  688  1  0.12094200  0.99764400  0.53994400  1
  H  689  1  0.14885700  0.98137100  0.52190500  1
  H  690  1  0.18358900  0.98102400  0.52136300  1
  H  691  1  0.18389400  0.03872500  0.50080000  1
  H  692  1  0.14921600  0.03927200  0.50159600  1
  H  693  1  0.02287800  0.93542500  0.54070700  1
  H  694  1  0.02339600  0.90076200  0.54087700  1
  H  695  1  0.01945100  0.87185000  0.48355200  1
  H  696  1  0.01968200  0.83728800  0.48376700  1
  H  697  1  0.00364000  0.83738200  0.54288400  1
  H  698  1  0.00283300  0.87202800  0.54263700  1
  H  699  1  0.99825200  0.90022100  0.48486600  1
  H  700  1  0.99855300  0.93489800  0.48446300  1
  H  701  1  0.00506600  0.14958300  0.48391200  1
  H  702  1  0.00538700  0.18415100  0.48453700  1
  H  703  1  0.01732900  0.14851000  0.54406000  1
  H  704  1  0.01696200  0.18315200  0.54466200  1
  H  719  1  0.97325200  0.46138800  0.23282900  1
  H  720  1  0.02866800  0.53128200  0.28259800  1
  H  721  1  0.03578600  0.53227600  0.24870900  1
  H  724  1  0.96962200  0.44750500  0.27964100  1
  H  725  1  0.93718600  0.47372600  0.26867400  1
  H  726  1  0.94894600  0.47329800  0.29173200  1
  H  727  1  0.93538200  0.45293400  0.28365600  1
  H  729  1  0.98911700  0.50736400  0.30454500  1
  H  731  1  0.03511500  0.51183800  0.21712500  1
  H  742  1  0.04371600  0.45807500  0.79006700  1
  H  743  1  0.99423400  0.53102900  0.73847500  1
  H  744  1  0.99069200  0.53601300  0.77252300  1
  H  747  1  0.04134200  0.44026800  0.74452800  1
  H  748  1  0.07791100  0.46234600  0.75044400  1
  H  749  1  0.06411700  0.46182400  0.72854600  1
  H  750  1  0.07547900  0.44041400  0.73728300  1
  H  752  1  0.01179400  0.48775000  0.71652800  1
  H  754  1  0.98968900  0.51777900  0.80482000  1
  H  765  1  0.23247600  0.97349300  0.46154900  1
  H  766  1  0.28246100  0.02874400  0.53142500  1
  H  767  1  0.24858100  0.03579800  0.53261100  1
  H  770  1  0.27918600  0.97008800  0.44738100  1
  H  771  1  0.26867500  0.93751300  0.47361500  1
  H  772  1  0.29164600  0.94943400  0.47300200  1
  H  773  1  0.28348000  0.93585900  0.45268300  1
  H  775  1  0.30436500  0.98934600  0.50715700  1
  H  777  1  0.21693600  0.03516100  0.51293100  1
  H  788  1  0.78978300  0.04332600  0.45826300  1
  H  789  1  0.73797200  0.99411500  0.53124600  1
  H  790  1  0.77198200  0.99059900  0.53635800  1
  H  793  1  0.74426700  0.04097300  0.44035800  1
  H  794  1  0.75022100  0.07756800  0.46238400  1
  H  795  1  0.72829600  0.06381800  0.46184900  1
  H  796  1  0.73709300  0.07512600  0.44043500  1
  H  798  1  0.71611600  0.01166500  0.48786700  1
  H  800  1  0.80434100  0.98969200  0.51890800  1
  H  811  1  0.46146900  0.23255300  0.97323600  1
  H  812  1  0.53121200  0.28226900  0.02889500  1
  H  813  1  0.53221700  0.24836800  0.03595200  1
  H  816  1  0.44750900  0.27933300  0.96974000  1
  H  817  1  0.47383600  0.26861900  0.93730500  1
  H  818  1  0.47329700  0.29161500  0.94918000  1
  H  819  1  0.45299400  0.28353500  0.93553100  1
  H  821  1  0.50731300  0.30426700  0.98933700  1
  H  823  1  0.51181300  0.21678200  0.03519000  1
  H  834  1  0.45823700  0.78970000  0.04366200  1
  H  835  1  0.53107900  0.73812000  0.99400700  1
  H  836  1  0.53605600  0.77216400  0.99046800  1
  H  839  1  0.44042300  0.74415700  0.04131700  1
  H  840  1  0.46256200  0.75009500  0.07784700  1
  H  841  1  0.46202200  0.72819100  0.06406300  1
  H  842  1  0.44063100  0.73692800  0.07545700  1
  H  844  1  0.48785100  0.71615300  0.01172000  1
  H  846  1  0.51784500  0.80446600  0.98952600  1
  H  857  1  0.46162500  0.97287400  0.78822700  1
  H  858  1  0.53140900  0.02881700  0.73889400  1
  H  859  1  0.53231600  0.03576300  0.77282200  1
  H  862  1  0.44759900  0.96982000  0.74151000  1
  H  863  1  0.47399900  0.93723600  0.75154100  1
  H  864  1  0.47327800  0.94946200  0.72873600  1
  H  865  1  0.45304400  0.93567600  0.73675700  1
  H  867  1  0.50764900  0.98925000  0.71676600  1
  H  869  1  0.51178400  0.03490200  0.80432000  1
  H  880  1  0.45795200  0.04370700  0.23123500  1
  H  881  1  0.53088700  0.99438400  0.28300500  1
  H  882  1  0.53593300  0.99081400  0.24897200  1
  H  885  1  0.44009900  0.04141200  0.27677200  1
  H  886  1  0.46212200  0.07799500  0.27073900  1
  H  887  1  0.46161800  0.06427500  0.29268400  1
  H  888  1  0.44019200  0.07557300  0.28390100  1
  H  890  1  0.48756900  0.01199400  0.30486700  1
  H  892  1  0.51779900  0.98978200  0.21664400  1
  H  903  1  0.96682900  0.23207200  0.55455600  1
  H  904  1  0.02807500  0.28300700  0.49061600  1
  H  905  1  0.03249300  0.24900600  0.48668000  1
  H  908  1  0.94885700  0.27764200  0.55545200  1
  H  909  1  0.97815000  0.27197100  0.58659300  1
  H  910  1  0.95621600  0.28517500  0.58873000  1
  H  911  1  0.97475200  0.29375200  0.57302700  1
  H  913  1  0.98928500  0.30532000  0.51642200  1
  H  915  1  0.01773000  0.21659700  0.49021300  1
  H  926  1  0.05031000  0.78862800  0.55997100  1
  H  927  1  0.99524700  0.73818900  0.49026300  1
  H  928  1  0.99524300  0.77204600  0.48320100  1
  H  931  1  0.06402100  0.74214100  0.56624300  1
  H  932  1  0.03076400  0.75161900  0.59199900  1
  H  933  1  0.05108100  0.73720500  0.59828200  1
  H  934  1  0.03464300  0.72886700  0.58028100  1
  H  936  1  0.01047700  0.71647100  0.53410200  1
  H  938  1  0.01215000  0.80390100  0.48806500  1
  H  949  1  0.23127200  0.45789600  0.04376900  1
  H  950  1  0.28301300  0.53090600  0.99452200  1
  H  951  1  0.24897800  0.53596700  0.99100000  1
  H  954  1  0.27680100  0.44002500  0.04139000  1
  H  955  1  0.27081500  0.46199100  0.07801600  1
  H  956  1  0.29274500  0.46150000  0.06427200  1
  H  957  1  0.28396700  0.44006000  0.07554400  1
  H  959  1  0.30489800  0.48755600  0.01208300  1
  H  961  1  0.21664700  0.51780300  0.98995200  1
  H  972  1  0.78824600  0.46165200  0.97293100  1
  H  973  1  0.73888500  0.53137800  0.02892300  1
  H  974  1  0.77281100  0.53228200  0.03588400  1
  H  977  1  0.74152900  0.44762600  0.96984800  1
  H  978  1  0.75156600  0.47406400  0.93729700  1
  H  979  1  0.72875800  0.47332600  0.94951500  1
  H  980  1  0.73678600  0.45311000  0.93570800  1
  H  982  1  0.71677600  0.50767500  0.98932400  1
  H  984  1  0.80430400  0.51178000  0.03502500  1
  C  1  1  0.01282400  0.46013200  0.47500600  1
  C  2  1  0.01308500  0.47423400  0.46073200  1
  C  3  1  0.01302900  0.49246500  0.46969500  1
  C  5  1  0.01305400  0.46930500  0.49313400  1
  C  6  1  0.01329100  0.45947900  0.51140200  1
  C  7  1  0.01354500  0.46903200  0.52976000  1
  C  9  1  0.01366400  0.49224100  0.55279300  1
  C  10  1  0.01485300  0.47419800  0.56202300  1
  C  11  1  0.01479300  0.45995500  0.54788600  1
  C  12  1  0.01355600  0.51067200  0.56219800  1
  C  13  1  0.01339600  0.52882100  0.55216200  1
  C  15  1  0.01339100  0.55198100  0.52873400  1
  C  16  1  0.01347400  0.56115700  0.54686000  1
  C  17  1  0.01324100  0.54704700  0.56113200  1
  C  18  1  0.01333000  0.56180000  0.51046600  1
  C  19  1  0.01311400  0.55224700  0.49210900  1
  C  21  1  0.01296200  0.52904400  0.46906600  1
  C  22  1  0.01195600  0.54710600  0.45984400  1
  C  23  1  0.01205600  0.56134500  0.47398400  1
  C  24  1  0.01301300  0.51061400  0.45964800  1
  C  25  1  0.01315800  0.51038700  0.43876800  1
  C  26  1  0.99650300  0.50493300  0.42805100  1
  C  27  1  0.99680700  0.50461700  0.40755700  1
  C  28  1  0.01362800  0.50997600  0.39687300  1
  C  29  1  0.03019100  0.51558500  0.40782100  1
  C  30  1  0.03002600  0.51569300  0.42831200  1
  C  31  1  0.01388200  0.50979100  0.37589500  1
  C  32  1  0.03071300  0.50429000  0.36530900  1
  C  33  1  0.03104000  0.50433500  0.34481000  1
  C  34  1  0.01447300  0.50962700  0.33394700  1
  C  35  1  0.99761900  0.51521400  0.34432900  1
  C  36  1  0.99736100  0.51527400  0.36482800  1
  C  37  1  0.01344500  0.58265700  0.51047600  1
  C  38  1  0.99658000  0.59333600  0.51533700  1
  C  39  1  0.99673600  0.61382500  0.51523900  1
  C  40  1  0.01362600  0.62440100  0.50999000  1
  C  41  1  0.03043200  0.61357100  0.50501900  1
  C  42  1  0.03039900  0.59308400  0.50537000  1
  C  43  1  0.01367900  0.64526900  0.50965800  1
  C  44  1  0.00518900  0.65623300  0.52488500  1
  C  45  1  0.00515300  0.67672200  0.52453900  1
  C  46  1  0.01359100  0.68708400  0.50889000  1
  C  47  1  0.02185600  0.67622600  0.49357000  1
  C  48  1  0.02205000  0.65573100  0.49400900  1
  C  49  1  0.01366000  0.51090900  0.58306900  1
  C  50  1  0.03055100  0.51612400  0.59354800  1
  C  51  1  0.03049700  0.51658400  0.61404200  1
  C  52  1  0.01368600  0.51156000  0.62484800  1
  C  53  1  0.99688700  0.50612700  0.61421900  1
  C  54  1  0.99681400  0.50592500  0.59372700  1
  C  55  1  0.01363200  0.51201800  0.64573100  1
  C  56  1  0.00505300  0.49687600  0.65674900  1
  C  57  1  0.00483300  0.49738400  0.67723400  1
  C  58  1  0.01319000  0.51309800  0.68757000  1
  C  59  1  0.02153100  0.52834300  0.67666100  1
  C  60  1  0.02191200  0.52774100  0.65616400  1
  C  61  1  0.01348600  0.43861800  0.51138000  1
  C  62  1  0.03031400  0.42820300  0.50589000  1
  C  63  1  0.99690000  0.42790500  0.51704300  1
  C  64  1  0.99719900  0.40742200  0.51728300  1
  C  65  1  0.01395400  0.39677700  0.51166500  1
  C  66  1  0.03046300  0.40771800  0.50589700  1
  C  67  1  0.01418200  0.37582400  0.51177200  1
  C  68  1  0.03104000  0.36520000  0.51711100  1
  C  69  1  0.03131900  0.34470500  0.51699700  1
  C  70  1  0.01465500  0.33393400  0.51184500  1
  C  71  1  0.99779700  0.34435600  0.50635700  1
  C  72  1  0.99758900  0.36484400  0.50635400  1
  C  119  1  0.47475300  0.01532600  0.46002200  1
  C  120  1  0.46049200  0.01520000  0.47414100  1
  C  121  1  0.46942900  0.01336000  0.49229600  1
  C  123  1  0.49282400  0.01350400  0.46912200  1
  C  124  1  0.51104600  0.01338900  0.45922600  1
  C  125  1  0.52940000  0.01328000  0.46878200  1
  C  127  1  0.55240400  0.01350300  0.49201300  1
  C  128  1  0.56167300  0.01363000  0.47394900  1
  C  129  1  0.54755800  0.01324500  0.45969300  1
  C  130  1  0.56177500  0.01340600  0.51046000  1
  C  131  1  0.55170600  0.01308400  0.52858400  1
  C  133  1  0.52832100  0.01297400  0.55176400  1
  C  134  1  0.54639800  0.01116800  0.56085900  1
  C  135  1  0.56065000  0.01123900  0.54673200  1
  C  136  1  0.51010800  0.01317100  0.56167900  1
  C  137  1  0.49175600  0.01321200  0.55211400  1
  C  139  1  0.46875200  0.01294500  0.52887400  1
  C  140  1  0.45948700  0.01286400  0.54694100  1
  C  141  1  0.47359600  0.01329900  0.56119800  1
  C  142  1  0.45936500  0.01307900  0.51042800  1
  C  143  1  0.43849000  0.01340700  0.51013000  1
  C  144  1  0.42776000  0.99687900  0.50432600  1
  C  145  1  0.40726800  0.99720400  0.50403200  1
  C  146  1  0.39661300  0.01393800  0.50970000  1
  C  147  1  0.40757300  0.03041700  0.51552700  1
  C  148  1  0.42806200  0.03023500  0.51561100  1
  C  149  1  0.37564300  0.01417800  0.50961000  1
  C  150  1  0.36502700  0.03106300  0.50434500  1
  C  151  1  0.34452900  0.03136500  0.50447100  1
  C  152  1  0.33371000  0.01472400  0.50961700  1
  C  153  1  0.34412400  0.99782300  0.51499100  1
  C  154  1  0.36462300  0.99758900  0.51497900  1
  C  155  1  0.51022900  0.01322900  0.58256500  1
  C  156  1  0.50461800  0.99665300  0.59332700  1
  C  157  1  0.50446500  0.99695700  0.61382200  1
  C  158  1  0.51014000  0.01370300  0.62445900  1
  C  159  1  0.51596300  0.03016300  0.61347100  1
  C  160  1  0.51592100  0.02999500  0.59297800  1
  C  161  1  0.51001800  0.01398900  0.64543400  1
  C  162  1  0.51532900  0.99741600  0.65650600  1
  C  163  1  0.51528100  0.99768800  0.67700500  1
  C  164  1  0.50989000  0.01461000  0.68738500  1
  C  165  1  0.50478400  0.03123000  0.67651100  1
  C  166  1  0.50472000  0.03089000  0.65601200  1
  C  167  1  0.58264600  0.01334500  0.51079000  1
  C  168  1  0.59312700  0.03011900  0.51636900  1
  C  169  1  0.61361400  0.03003200  0.51691700  1
  C  170  1  0.62441600  0.01327800  0.51170600  1
  C  171  1  0.61378700  0.99655500  0.50603500  1
  C  172  1  0.59329700  0.99651900  0.50572400  1
  C  173  1  0.64529800  0.01322200  0.51217900  1
  C  174  1  0.65632000  0.00484600  0.49692900  1
  C  175  1  0.67680600  0.00466800  0.49741700  1
  C  176  1  0.68713400  0.01285500  0.51322600  1
  C  177  1  0.67622100  0.02099100  0.52857700  1
  C  178  1  0.65572300  0.02132600  0.52799900  1
  C  179  1  0.51095100  0.01364100  0.43835300  1
  C  180  1  0.51622800  0.03052300  0.42788800  1
  C  181  1  0.50572700  0.99687900  0.42767800  1
  C  182  1  0.50582500  0.99700300  0.40718600  1
  C  183  1  0.51137000  0.01377600  0.39657200  1
  C  184  1  0.51656900  0.03052300  0.40739300  1
  C  185  1  0.51181900  0.01374000  0.37568900  1
  C  186  1  0.52760900  0.02189900  0.36526300  1
  C  187  1  0.52821100  0.02152700  0.34476600  1
  C  188  1  0.51290500  0.01330800  0.33385400  1
  C  189  1  0.49712600  0.00506200  0.34418200  1
  C  190  1  0.49661800  0.00527500  0.36466700  1
  C  237  1  0.46003300  0.47473000  0.01530200  1
  C  238  1  0.47415400  0.46046800  0.01523700  1
  C  239  1  0.49230900  0.46939700  0.01338300  1
  C  241  1  0.46914000  0.49280100  0.01352000  1
  C  242  1  0.45925000  0.51102700  0.01340200  1
  C  243  1  0.46880200  0.52938400  0.01330100  1
  C  245  1  0.49202900  0.55239900  0.01353400  1
  C  246  1  0.47396300  0.56166100  0.01368700  1
  C  247  1  0.45971000  0.54754000  0.01327700  1
  C  248  1  0.51047200  0.56177900  0.01342100  1
  C  249  1  0.52859200  0.55169900  0.01306700  1
  C  251  1  0.55176600  0.52830400  0.01295700  1
  C  252  1  0.56086500  0.54637900  0.01116000  1
  C  253  1  0.54673900  0.56063400  0.01118600  1
  C  254  1  0.56167700  0.51008800  0.01319700  1
  C  255  1  0.55211600  0.49173200  0.01325200  1
  C  257  1  0.52888100  0.46871800  0.01299200  1
  C  258  1  0.54695100  0.45945900  0.01293900  1
  C  259  1  0.56120200  0.47357600  0.01337500  1
  C  260  1  0.51043800  0.45932500  0.01311600  1
  C  261  1  0.51014000  0.43844500  0.01343600  1
  C  262  1  0.50437800  0.42771500  0.99689300  1
  C  263  1  0.50409000  0.40722100  0.99720700  1
  C  264  1  0.50970600  0.39655600  0.01395300  1
  C  265  1  0.51548900  0.40751500  0.03044800  1
  C  266  1  0.51558100  0.42800700  0.03027200  1
  C  267  1  0.50960400  0.37558000  0.01419000  1
  C  268  1  0.50429200  0.36496200  0.03106000  1
  C  269  1  0.50439600  0.34446200  0.03135800  1
  C  270  1  0.50957800  0.33363500  0.01473300  1
  C  271  1  0.51499600  0.34405200  0.99784600  1
  C  272  1  0.51499200  0.36455300  0.99761200  1
  C  273  1  0.58256200  0.51020800  0.01326300  1
  C  274  1  0.59333000  0.50460200  0.99668800  1
  C  275  1  0.61382500  0.50445400  0.99699900  1
  C  276  1  0.62445700  0.51012300  0.01375000  1
  C  277  1  0.61346200  0.51594000  0.03020900  1
  C  278  1  0.59297000  0.51589900  0.03003300  1
  C  279  1  0.64543100  0.51000200  0.01404300  1
  C  280  1  0.65650700  0.51531600  0.99747500  1
  C  281  1  0.67700800  0.51527100  0.99775500  1
  C  282  1  0.68738200  0.50987400  0.01467700  1
  C  283  1  0.67650300  0.50476100  0.03129200  1
  C  284  1  0.65600300  0.50470200  0.03094800  1
  C  285  1  0.51080300  0.58265500  0.01336200  1
  C  286  1  0.51642100  0.59314000  0.03012100  1
  C  287  1  0.51697200  0.61363000  0.03003500  1
  C  288  1  0.51171600  0.62444200  0.01329900  1
  C  289  1  0.50601800  0.61380800  0.99658900  1
  C  290  1  0.50569800  0.59331400  0.99655100  1
  C  291  1  0.51218400  0.64533000  0.01324900  1
  C  292  1  0.49693600  0.65635800  0.00487300  1
  C  293  1  0.49741700  0.67684600  0.00470100  1
  C  294  1  0.51321600  0.68718000  0.01290000  1
  C  295  1  0.52856800  0.67626400  0.02102800  1
  C  296  1  0.52799300  0.65576500  0.02136400  1
  C  297  1  0.43837500  0.51093400  0.01365800  1
  C  298  1  0.42791400  0.51619600  0.03054800  1
  C  299  1  0.42769600  0.50572600  0.99689400  1
  C  300  1  0.40720400  0.50582500  0.99702500  1
  C  301  1  0.39659400  0.51135800  0.01380400  1
  C  302  1  0.40742000  0.51654300  0.03055200  1
  C  303  1  0.37571200  0.51180900  0.01377600  1
  C  304  1  0.36528700  0.52759600  0.02194600  1
  C  305  1  0.34479200  0.52819800  0.02157900  1
  C  306  1  0.33387600  0.51289500  0.01335900  1
  C  307  1  0.34420100  0.49712100  0.00510200  1
  C  308  1  0.36468600  0.49660900  0.00531200  1
  C  355  1  0.51271700  0.96021800  0.97441200  1
  C  356  1  0.51236400  0.97441000  0.96021900  1
  C  357  1  0.51232900  0.99259400  0.96927900  1
  C  359  1  0.51252700  0.96927400  0.99259600  1
  C  360  1  0.51268800  0.95931200  0.01080300  1
  C  361  1  0.51268100  0.96882100  0.02920300  1
  C  363  1  0.51258500  0.99197800  0.05234800  1
  C  364  1  0.51282500  0.97386500  0.06151800  1
  C  365  1  0.51264200  0.95967100  0.04733300  1
  C  366  1  0.51253300  0.01038000  0.06183900  1
  C  367  1  0.51236100  0.02858000  0.05187000  1
  C  369  1  0.51212100  0.05188200  0.02855500  1
  C  370  1  0.51210700  0.06095400  0.04673100  1
  C  371  1  0.51202400  0.04676700  0.06092300  1
  C  372  1  0.51210000  0.06183500  0.01035100  1
  C  373  1  0.51211400  0.05234400  0.99195000  1
  C  375  1  0.51207000  0.02920200  0.96880700  1
  C  376  1  0.51210500  0.04732300  0.95964200  1
  C  377  1  0.51192800  0.06151200  0.97383300  1
  C  378  1  0.51215300  0.01080000  0.95931700  1
  C  379  1  0.51210800  0.01065600  0.93842300  1
  C  380  1  0.49520500  0.01563900  0.92784100  1
  C  381  1  0.49523800  0.01571400  0.90734200  1
  C  382  1  0.51204000  0.01048300  0.89662900  1
  C  383  1  0.52888200  0.00535700  0.90733000  1
  C  384  1  0.52899000  0.00562100  0.92783000  1
  C  385  1  0.51196900  0.01027700  0.87575500  1
  C  386  1  0.51970600  0.99437100  0.86519600  1
  C  387  1  0.51930200  0.99397200  0.84469900  1
  C  388  1  0.51156200  0.00963600  0.83394200  1
  C  389  1  0.50378400  0.02556000  0.84438300  1
  C  390  1  0.50393600  0.02582600  0.86488600  1
  C  391  1  0.51207500  0.08272100  0.01050400  1
  C  392  1  0.49517600  0.09326000  0.01558700  1
  C  393  1  0.49520600  0.11375900  0.01578300  1
  C  394  1  0.51199300  0.12449800  0.01056000  1
  C  395  1  0.52883000  0.11383800  0.00533800  1
  C  396  1  0.52894200  0.09334200  0.00548500  1
  C  397  1  0.51191100  0.14536600  0.01041200  1
  C  398  1  0.50396300  0.15618500  0.02603800  1
  C  399  1  0.50380700  0.17668800  0.02582500  1
  C  400  1  0.51151400  0.18716400  0.00988900  1
  C  401  1  0.51914600  0.17645400  0.99414400  1
  C  402  1  0.51954600  0.15595900  0.99448400  1
  C  403  1  0.51268500  0.01057300  0.08273300  1
  C  404  1  0.52948800  0.01624000  0.09313400  1
  C  405  1  0.52948800  0.01688500  0.11362200  1
  C  406  1  0.51285700  0.01147200  0.12449500  1
  C  407  1  0.49615800  0.00552800  0.11400100  1
  C  408  1  0.49599400  0.00528000  0.09350400  1
  C  409  1  0.51286300  0.01217800  0.14533800  1
  C  410  1  0.50574000  0.99647000  0.15659500  1
  C  411  1  0.50559600  0.99726200  0.17708100  1
  C  412  1  0.51248600  0.01386400  0.18707700  1
  C  413  1  0.51924500  0.02969900  0.17592800  1
  C  414  1  0.51969300  0.02877400  0.15544900  1
  C  415  1  0.51290200  0.93841000  0.01068000  1
  C  416  1  0.52974700  0.92796500  0.01614600  1
  C  417  1  0.49618200  0.92766500  0.00542100  1
  C  418  1  0.49634400  0.90716500  0.00554700  1
  C  419  1  0.51307500  0.89662600  0.01132700  1
  C  420  1  0.52975200  0.90747300  0.01665800  1
  C  421  1  0.51306000  0.87577500  0.01200300  1
  C  422  1  0.52002400  0.86563300  0.02852600  1
  C  423  1  0.51956800  0.84515100  0.02943600  1
  C  424  1  0.51266500  0.83401700  0.01365100  1
  C  425  1  0.50562200  0.84404200  0.99712900  1
  C  426  1  0.50577400  0.86453300  0.99635800  1
  C  473  1  0.97444500  0.51268700  0.96052700  1
  C  474  1  0.96024500  0.51233600  0.97471100  1
  C  475  1  0.96929700  0.51230700  0.99290100  1
  C  477  1  0.99262500  0.51250400  0.96959200  1
  C  478  1  0.01083600  0.51265800  0.95964100  1
  C  479  1  0.02923300  0.51264200  0.96915400  1
  C  481  1  0.05237100  0.51255300  0.99231400  1
  C  482  1  0.06154600  0.51278700  0.97420400  1
  C  483  1  0.04736500  0.51260800  0.96000700  1
  C  484  1  0.06185700  0.51250900  0.01071900  1
  C  485  1  0.05188100  0.51234500  0.02891400  1
  C  487  1  0.02855500  0.51210700  0.05220700  1
  C  488  1  0.04672800  0.51210200  0.06128600  1
  C  489  1  0.06092700  0.51201700  0.04710500  1
  C  490  1  0.01034700  0.51208200  0.06215300  1
  C  491  1  0.99194900  0.51209700  0.05265600  1
  C  493  1  0.96881100  0.51204600  0.02950600  1
  C  494  1  0.95964200  0.51208400  0.04762500  1
  C  495  1  0.97382900  0.51190300  0.06181800  1
  C  496  1  0.95932700  0.51213200  0.01110200  1
  C  497  1  0.93843300  0.51209100  0.01094600  1
  C  498  1  0.92784600  0.49518700  0.01591900  1
  C  499  1  0.90734500  0.49522100  0.01596600  1
  C  500  1  0.89663800  0.51202100  0.01071700  1
  C  501  1  0.90734600  0.52886000  0.00559800  1
  C  502  1  0.92784400  0.52897000  0.00589300  1
  C  503  1  0.87576300  0.51195000  0.01048400  1
  C  504  1  0.86522200  0.51969300  0.99456800  1
  C  505  1  0.84472600  0.51928600  0.99414400  1
  C  506  1  0.83394900  0.51154300  0.00979100  1
  C  507  1  0.84437200  0.50375200  0.02572300  1
  C  508  1  0.86487600  0.50391000  0.02601700  1
  C  509  1  0.01049300  0.51206200  0.08303900  1
  C  510  1  0.01558000  0.49516700  0.09358400  1
  C  511  1  0.01577700  0.49520300  0.11408200  1
  C  512  1  0.01053900  0.51198900  0.12481700  1
  C  513  1  0.00532200  0.52882300  0.11415200  1
  C  514  1  0.00546600  0.52892900  0.09365600  1
  C  515  1  0.01038300  0.51191100  0.14568600  1
  C  516  1  0.02600600  0.50396800  0.15651300  1
  C  517  1  0.02578300  0.50381700  0.17701700  1
  C  518  1  0.00984200  0.51152400  0.18748400  1
  C  519  1  0.99409700  0.51914800  0.17676400  1
  C  520  1  0.99445300  0.51955800  0.15627000  1
  C  521  1  0.08275100  0.51266200  0.01091500  1
  C  522  1  0.09315300  0.52947000  0.01657200  1
  C  523  1  0.11364100  0.52947800  0.01718900  1
  C  524  1  0.12451500  0.51285100  0.01176500  1
  C  525  1  0.11402100  0.49615000  0.00582900  1
  C  526  1  0.09352300  0.49597500  0.00561200  1
  C  527  1  0.14536000  0.51286700  0.01243900  1
  C  528  1  0.15659700  0.50574200  0.99671800  1
  C  529  1  0.17708500  0.50560900  0.99748000  1
  C  530  1  0.18710200  0.51250100  0.01406900  1
  C  531  1  0.17597200  0.51926400  0.02991700  1
  C  532  1  0.15549100  0.51970900  0.02901700  1
  C  533  1  0.01072200  0.51286400  0.93874300  1
  C  534  1  0.01617700  0.52971100  0.92829600  1
  C  535  1  0.00549300  0.49613100  0.92800400  1
  C  536  1  0.00563100  0.49628600  0.90750300  1
  C  537  1  0.01140600  0.51301800  0.89696500  1
  C  538  1  0.01670600  0.52970800  0.90780600  1
  C  539  1  0.01210400  0.51299200  0.87611700  1
  C  540  1  0.02863200  0.51996600  0.86599100  1
  C  541  1  0.02956500  0.51949700  0.84551200  1
  C  542  1  0.01379900  0.51257000  0.83436800  1
  C  543  1  0.99726900  0.50552400  0.84437700  1
  C  544  1  0.99647800  0.50568100  0.86486600  1
  C  591  1  0.96059400  0.97465700  0.51752000  1
  C  592  1  0.97481400  0.96048200  0.51743400  1
  C  593  1  0.99271900  0.96938300  0.51385400  1
  C  595  1  0.96941600  0.99260200  0.51395400  1
  C  596  1  0.95936500  0.01067300  0.51250500  1
  C  597  1  0.96894500  0.02895300  0.51106900  1
  C  599  1  0.99208300  0.05200300  0.51105400  1
  C  600  1  0.97417100  0.06106000  0.50800600  1
  C  601  1  0.95995300  0.04689700  0.50801800  1
  C  602  1  0.01038700  0.06152000  0.51252000  1
  C  603  1  0.02846000  0.05149800  0.51409800  1
  C  605  1  0.05173900  0.02828900  0.51389800  1
  C  606  1  0.06057500  0.04616900  0.51772900  1
  C  607  1  0.04635700  0.06033500  0.51788200  1
  C  608  1  0.06180000  0.01025700  0.51216600  1
  C  609  1  0.05224900  0.99196800  0.51076200  1
  C  611  1  0.02912600  0.96891600  0.51086700  1
  C  612  1  0.04704700  0.95984900  0.50788600  1
  C  613  1  0.06125700  0.97402100  0.50779300  1
  C  614  1  0.01081800  0.95940400  0.51231200  1
  C  615  1  0.01068900  0.93854100  0.51256300  1
  C  616  1  0.00373300  0.92782100  0.49648300  1
  C  617  1  0.00376900  0.90732700  0.49669900  1
  C  618  1  0.01082700  0.89669600  0.51290500  1
  C  619  1  0.01777100  0.90763300  0.52895400  1
  C  620  1  0.01766400  0.92812300  0.52883600  1
  C  621  1  0.01099000  0.87574900  0.51303600  1
  C  622  1  0.00662100  0.86501100  0.53008900  1
  C  623  1  0.00689900  0.84451500  0.53023400  1
  C  624  1  0.01139500  0.83384000  0.51330700  1
  C  625  1  0.01589800  0.84440000  0.49624300  1
  C  626  1  0.01567400  0.86489800  0.49613900  1
  C  627  1  0.08268500  0.01045800  0.51221000  1
  C  628  1  0.09320900  0.01801300  0.49625300  1
  C  629  1  0.11370700  0.01815500  0.49626300  1
  C  630  1  0.12448700  0.01056700  0.51210100  1
  C  631  1  0.11383100  0.00300300  0.52803200  1
  C  632  1  0.09333500  0.00305900  0.52815800  1
  C  633  1  0.14537200  0.01041900  0.51196000  1
  C  634  1  0.15619900  0.02683300  0.50580400  1
  C  635  1  0.17670000  0.02663500  0.50557600  1
  C  636  1  0.18719300  0.00994700  0.51145000  1
  C  637  1  0.17648600  0.99345900  0.51731600  1
  C  638  1  0.15599300  0.99374300  0.51775100  1
  C  639  1  0.01057100  0.08239100  0.51282900  1
  C  640  1  0.00300000  0.09280300  0.52884000  1
  C  641  1  0.00316600  0.11328800  0.52910800  1
  C  642  1  0.01108900  0.12425100  0.51353400  1
  C  643  1  0.01872700  0.11362400  0.49758700  1
  C  644  1  0.01841300  0.09313900  0.49717700  1
  C  645  1  0.01134500  0.14520500  0.51388300  1
  C  646  1  0.00812900  0.15631700  0.49680800  1
  C  647  1  0.00826100  0.17680900  0.49713100  1
  C  648  1  0.01167700  0.18709200  0.51460400  1
  C  649  1  0.01463400  0.17619400  0.53171500  1
  C  650  1  0.01463500  0.15570200  0.53133300  1
  C  651  1  0.93846500  0.01056000  0.51280000  1
  C  652  1  0.92804800  0.01835700  0.52872100  1
  C  653  1  0.92767700  0.00295700  0.49703800  1
  C  654  1  0.90717600  0.00315700  0.49720600  1
  C  655  1  0.89666000  0.01122700  0.51298000  1
  C  656  1  0.90755700  0.01881600  0.52872700  1
  C  657  1  0.87579200  0.01190400  0.51292200  1
  C  658  1  0.86564400  0.02908000  0.51807400  1
  C  659  1  0.84516000  0.02992000  0.51760600  1
  C  660  1  0.83401300  0.01348600  0.51247000  1
  C  661  1  0.84403700  0.99630500  0.50722700  1
  C  662  1  0.86452600  0.99556000  0.50741600  1
  C  709  1  0.00781600  0.50856600  0.28123000  1
  C  710  1  0.99824300  0.49595900  0.26799500  1
  C  711  1  0.00232900  0.49667600  0.24768500  1
  C  712  1  0.01603900  0.51012700  0.24016700  1
  C  713  1  0.02569700  0.52244300  0.25352500  1
  C  714  1  0.02159300  0.52177900  0.27359100  1
  C  716  1  0.97982300  0.47063400  0.24240500  1
  C  717  1  0.97567600  0.46988800  0.26239300  1
  C  723  1  0.94506700  0.46459900  0.27900400  1
  C  728  1  0.00305000  0.50870000  0.30094900  1
  C  730  1  0.02109900  0.51088000  0.22053800  1
  C  732  1  0.01199900  0.50585800  0.74031500  1
  C  733  1  0.02089200  0.49314700  0.75393200  1
  C  734  1  0.01881700  0.49610700  0.77434700  1
  C  735  1  0.00769500  0.51189300  0.78161900  1
  C  736  1  0.99914800  0.52466000  0.76791400  1
  C  737  1  0.00130600  0.52177400  0.74773700  1
  C  739  1  0.03773100  0.46743800  0.78022300  1
  C  740  1  0.04000100  0.46455100  0.76013100  1
  C  746  1  0.06794100  0.45366700  0.74164500  1
  C  751  1  0.01215500  0.50166200  0.72043000  1
  C  753  1  0.00324300  0.51412600  0.80131500  1
  C  755  1  0.28101500  0.00797700  0.50863400  1
  C  756  1  0.26773900  0.99844200  0.49604600  1
  C  757  1  0.24742400  0.00248700  0.49687400  1
  C  758  1  0.23994300  0.01613100  0.51041900  1
  C  759  1  0.25335500  0.02575300  0.52271300  1
  C  760  1  0.27342100  0.02168900  0.52193700  1
  C  762  1  0.24208000  0.98005300  0.47077500  1
  C  763  1  0.26207500  0.97596300  0.46991300  1
  C  769  1  0.27886600  0.94548500  0.46441100  1
  C  774  1  0.30074200  0.00325500  0.50864000  1
  C  776  1  0.22031300  0.02119800  0.51132300  1
  C  778  1  0.73988500  0.01178300  0.50600900  1
  C  779  1  0.75354700  0.02061300  0.49330100  1
  C  780  1  0.77395300  0.01853500  0.49632600  1
  C  781  1  0.78118300  0.00747400  0.51217800  1
  C  782  1  0.76742300  0.99899300  0.52493600  1
  C  783  1  0.74725900  0.00115300  0.52199000  1
  C  785  1  0.77991000  0.03736700  0.46761200  1
  C  786  1  0.75982800  0.03964300  0.46467000  1
  C  792  1  0.74141700  0.06760100  0.45370700  1
  C  797  1  0.72000600  0.01195300  0.50178400  1
  C  799  1  0.80088000  0.00305700  0.51458200  1
  C  801  1  0.50854300  0.28092000  0.00799000  1
  C  802  1  0.49596200  0.26769400  0.99837200  1
  C  803  1  0.49668900  0.24737500  0.00241600  1
  C  804  1  0.51012000  0.23984400  0.01613800  1
  C  805  1  0.52240400  0.25319500  0.02584900  1
  C  806  1  0.52173400  0.27326700  0.02178000  1
  C  808  1  0.47069600  0.24212300  0.97984400  1
  C  809  1  0.46992900  0.26212100  0.97575300  1
  C  815  1  0.46465300  0.27887600  0.94521700  1
  C  820  1  0.50865500  0.30064900  0.00326200  1
  C  822  1  0.51087100  0.22020900  0.02117700  1
  C  824  1  0.50595700  0.73994400  0.01184600  1
  C  825  1  0.49326300  0.75356400  0.02076300  1
  C  826  1  0.49621900  0.77398100  0.01868800  1
  C  827  1  0.51198000  0.78125900  0.00753800  1
  C  828  1  0.52472100  0.76755500  0.99894900  1
  C  829  1  0.52185100  0.74737500  0.00112100  1
  C  831  1  0.46758700  0.77985500  0.03765900  1
  C  832  1  0.46470300  0.75976400  0.03992800  1
  C  838  1  0.45387000  0.74129000  0.06789500  1
  C  843  1  0.50176300  0.72005500  0.01200000  1
  C  845  1  0.51420900  0.80095900  0.00308500  1
  C  847  1  0.50875300  0.00789200  0.74011500  1
  C  848  1  0.49615300  0.99822100  0.75328100  1
  C  849  1  0.49684600  0.00216300  0.77362200  1
  C  850  1  0.51024000  0.01587600  0.78123400  1
  C  851  1  0.52253200  0.02566100  0.76793900  1
  C  852  1  0.52191400  0.02166500  0.74784700  1
  C  854  1  0.47087400  0.97952800  0.77871100  1
  C  855  1  0.47010900  0.97557600  0.75868400  1
  C  861  1  0.46473400  0.94529700  0.74147800  1
  C  866  1  0.50895000  0.00317900  0.72038100  1
  C  868  1  0.51091900  0.02088600  0.80088300  1
  C  870  1  0.50571700  0.01214700  0.28110600  1
  C  871  1  0.49300900  0.02099700  0.26745900  1
  C  872  1  0.49600400  0.01890100  0.24705100  1
  C  873  1  0.51181600  0.00779100  0.23981900  1
  C  874  1  0.52456400  0.99926600  0.25355300  1
  C  875  1  0.52165800  0.00146300  0.27372100  1
  C  877  1  0.46731000  0.03775700  0.24110300  1
  C  878  1  0.46439400  0.04005600  0.26118700  1
  C  884  1  0.45345900  0.06804100  0.27957000  1
  C  889  1  0.50148700  0.01231300  0.30098200  1
  C  891  1  0.51409200  0.00332500  0.22013500  1
  C  893  1  0.00691200  0.28137400  0.51302700  1
  C  894  1  0.99628900  0.26787300  0.52445800  1
  C  895  1  0.99885000  0.24743300  0.52209000  1
  C  896  1  0.01214100  0.24000300  0.50813000  1
  C  897  1  0.02291900  0.25365600  0.49709300  1
  C  898  1  0.02041600  0.27383700  0.49948800  1
  C  900  1  0.97469500  0.24183800  0.54661400  1
  C  901  1  0.97229800  0.26195600  0.54916800  1
  C  907  1  0.96757100  0.28071100  0.57860300  1
  C  912  1  0.00291900  0.30126700  0.51383900  1
  C  914  1  0.01399600  0.22021400  0.50370800  1
  C  916  1  0.01285200  0.73979500  0.51556000  1
  C  917  1  0.02283000  0.75316700  0.52768700  1
  C  918  1  0.02268900  0.77349400  0.52361500  1
  C  919  1  0.01246800  0.78090400  0.50728000  1
  C  920  1  0.00275900  0.76736600  0.49517000  1
  C  921  1  0.00284200  0.74729500  0.49925600  1
  C  923  1  0.04293700  0.77896500  0.55144700  1
  C  924  1  0.04311100  0.75895300  0.55553500  1
  C  930  1  0.04179400  0.74174700  0.58625900  1
  C  935  1  0.01196000  0.72007000  0.52018700  1
  C  937  1  0.01230200  0.80056900  0.50212400  1
  C  939  1  0.28112700  0.50569100  0.01222400  1
  C  940  1  0.26748600  0.49297400  0.02107400  1
  C  941  1  0.24707800  0.49598000  0.01900400  1
  C  942  1  0.23983500  0.51182300  0.00794500  1
  C  943  1  0.25356600  0.52457000  0.99941200  1
  C  944  1  0.27373700  0.52165700  0.00158200  1
  C  946  1  0.24113800  0.46725600  0.03781800  1
  C  947  1  0.26122300  0.46432800  0.04009100  1
  C  953  1  0.27963200  0.45334000  0.06803800  1
  C  958  1  0.30100700  0.50147100  0.01239300  1
  C  960  1  0.22014800  0.51410100  0.00349300  1
  C  962  1  0.74011700  0.50874600  0.00797400  1
  C  963  1  0.75328800  0.49615500  0.99829700  1
  C  964  1  0.77362800  0.49684600  0.00224900  1
  C  965  1  0.78123400  0.51022700  0.01597900  1
  C  966  1  0.76793400  0.52250800  0.02576700  1
  C  967  1  0.74784300  0.52189500  0.02176200  1
  C  969  1  0.77872500  0.47089000  0.97959700  1
  C  970  1  0.75869800  0.47012800  0.97563600  1
  C  976  1  0.74150300  0.46478800  0.94534500  1
  C  981  1  0.72038400  0.50893700  0.00325800  1
  C  983  1  0.80087900  0.51089000  0.02100700  1
  N  4  1  0.01304500  0.48863600  0.48908000  1
  N  8  1  0.01297900  0.48834800  0.53350500  1
  N  14  1  0.01339500  0.53265000  0.53278100  1
  N  20  1  0.01352800  0.53292600  0.48836000  1
  N  115  1  0.01593100  0.50957900  0.31452300  1
  N  116  1  0.01597900  0.31452100  0.51168700  1
  N  117  1  0.01304900  0.51469800  0.70700000  1
  N  118  1  0.01378300  0.70650000  0.50740300  1
  N  122  1  0.48877700  0.01235200  0.48842800  1
  N  126  1  0.53310300  0.01335800  0.48811900  1
  N  132  1  0.53235300  0.01403300  0.53245100  1
  N  138  1  0.48805200  0.01305800  0.53277500  1
  N  233  1  0.31428900  0.01615500  0.50963400  1
  N  234  1  0.51451200  0.01316400  0.31442700  1
  N  235  1  0.70656100  0.01273800  0.51481500  1
  N  236  1  0.50982000  0.01607100  0.70681500  1
  N  240  1  0.48844700  0.48875000  0.01239600  1
  N  244  1  0.48813900  0.53309600  0.01337300  1
  N  250  1  0.53245200  0.53234500  0.01401400  1
  N  256  1  0.53277600  0.48802100  0.01308700  1
  N  351  1  0.50954900  0.31420800  0.01616000  1
  N  352  1  0.31444900  0.51450100  0.01322200  1
  N  353  1  0.51480200  0.70661600  0.01278100  1
  N  354  1  0.70681200  0.50979700  0.01614400  1
  N  358  1  0.51235200  0.98863800  0.98864200  1
  N  362  1  0.51256300  0.98814500  0.03302600  1
  N  368  1  0.51232000  0.03252200  0.03250800  1
  N  374  1  0.51213000  0.03302300  0.98812800  1
  N  469  1  0.51107900  0.00807000  0.81455000  1
  N  470  1  0.51175100  0.81468100  0.01560400  1
  N  471  1  0.51156800  0.01582300  0.20640600  1
  N  472  1  0.51099300  0.20654900  0.00835800  1
  N  476  1  0.98866300  0.51233100  0.98895300  1
  N  480  1  0.03305000  0.51252800  0.98847800  1
  N  486  1  0.03251600  0.51229900  0.03284900  1
  N  492  1  0.98813200  0.51211100  0.03333400  1
  N  587  1  0.81455800  0.51105400  0.00820400  1
  N  588  1  0.01576200  0.51165200  0.81503500  1
  N  589  1  0.20643400  0.51158200  0.01600600  1
  N  590  1  0.00829300  0.51099600  0.20686600  1
  N  594  1  0.98867400  0.98862600  0.51202000  1
  N  598  1  0.98819000  0.03277700  0.51275900  1
  N  604  1  0.03247300  0.03226800  0.51207300  1
  N  610  1  0.03300900  0.98814600  0.51249200  1
  N  705  1  0.01170300  0.81443200  0.51471200  1
  N  706  1  0.81466900  0.01536000  0.51148900  1
  N  707  1  0.01114300  0.20647200  0.51611400  1
  N  708  1  0.20658200  0.00846000  0.51085100  1
  N  715  1  0.99288900  0.48386400  0.23590100  1
  N  718  1  0.98513900  0.48251400  0.27428200  1
  N  722  1  0.96247400  0.45604600  0.26971300  1
  N  738  1  0.02727700  0.48292500  0.78646800  1
  N  741  1  0.03136500  0.47745400  0.74793000  1
  N  745  1  0.05047000  0.44843400  0.75304800  1
  N  761  1  0.23561000  0.99306000  0.48408100  1
  N  764  1  0.27399500  0.98541100  0.48251800  1
  N  768  1  0.26937600  0.96284600  0.45598100  1
  N  784  1  0.78610700  0.02695400  0.48314600  1
  N  787  1  0.74759200  0.03105000  0.47756700  1
  N  791  1  0.75279200  0.05009800  0.44852200  1
  N  807  1  0.48390900  0.23560100  0.99292100  1
  N  810  1  0.48252700  0.27400000  0.98526700  1
  N  814  1  0.45609400  0.26946600  0.96255800  1
  N  830  1  0.48305600  0.78610200  0.02717600  1
  N  833  1  0.47758900  0.74756400  0.03126500  1
  N  837  1  0.44860500  0.75268300  0.05042700  1
  N  853  1  0.48406200  0.99258600  0.78532600  1
  N  856  1  0.48271900  0.98516200  0.74688200  1
  N  860  1  0.45623600  0.96248500  0.75121800  1
  N  876  1  0.48282300  0.02731700  0.23489800  1
  N  879  1  0.47729300  0.03146000  0.27342000  1
  N  883  1  0.44825600  0.05052300  0.26822500  1
  N  899  1  0.98771900  0.23546600  0.53327800  1
  N  902  1  0.98310000  0.27402900  0.53788000  1
  N  906  1  0.95875400  0.26917700  0.56273000  1
  N  922  1  0.03286400  0.78536500  0.53577100  1
  N  925  1  0.03313100  0.74697200  0.54341500  1
  N  929  1  0.05379200  0.75168500  0.57142900  1
  N  945  1  0.23492800  0.48279300  0.02741400  1
  N  948  1  0.27345200  0.47723700  0.03150300  1
  N  952  1  0.26826500  0.44817100  0.05052300  1
  N  968  1  0.78533600  0.48407100  0.99266400  1
  N  971  1  0.74689400  0.48273200  0.98522600  1
  N  975  1  0.75123900  0.45627100  0.96252600  1
