# generated using pymatgen
data_H32C43N8
_symmetry_space_group_name_H-M   'P 1'
_cell_length_a   42.84465000
_cell_length_b   42.84460000
_cell_length_c   59.72430000
_cell_angle_alpha   90.00000000
_cell_angle_beta   90.00000000
_cell_angle_gamma   119.99988419
_symmetry_Int_Tables_number   1
_chemical_formula_structural   H32C43N8
_chemical_formula_sum   'H384 C516 N96'
_cell_volume   94945.61212989
_cell_formula_units_Z   12
loop_
 _symmetry_equiv_pos_site_id
 _symmetry_equiv_pos_as_xyz
  1  'x, y, z'
loop_
 _atom_site_type_symbol
 _atom_site_label
 _atom_site_symmetry_multiplicity
 _atom_site_fract_x
 _atom_site_fract_y
 _atom_site_fract_z
 _atom_site_occupancy
  H  25  1  0.55721800  0.42403600  0.87627300  1
  H  26  1  0.59116400  0.48809700  0.87164800  1
  H  27  1  0.71094800  0.60317500  0.87316500  1
  H  28  1  0.77483100  0.63282500  0.87869400  1
  H  29  1  0.76283100  0.54258400  0.91397200  1
  H  30  1  0.64265700  0.42762500  0.91290900  1
  H  31  1  0.66689700  0.52689400  0.93804700  1
  H  32  1  0.69207300  0.49174600  0.99755400  1
  H  33  1  0.71662500  0.46206400  0.97615100  1
  H  34  1  0.70009000  0.49432700  0.86319000  1
  H  35  1  0.74792400  0.42829000  0.90183900  1
  H  36  1  0.75052000  0.43178900  0.86175800  1
  H  39  1  0.65835100  0.53786000  0.86506900  1
  H  40  1  0.64717500  0.54905100  0.89124700  1
  H  42  1  0.75034800  0.46881500  0.93709700  1
  H  43  1  0.70745800  0.42932100  0.93622300  1
  H  47  1  0.55271900  0.36803700  0.89647200  1
  H  48  1  0.82804400  0.63110200  0.90072400  1
  H  49  1  0.72884300  0.49062000  0.82946800  1
  H  51  1  0.65648000  0.54697400  0.97337200  1
  H  76  1  0.05360400  0.63111300  0.87635200  1
  H  77  1  0.08369400  0.59714800  0.87169300  1
  H  78  1  0.07895400  0.47732500  0.87313500  1
  H  79  1  0.04470800  0.41344400  0.87863900  1
  H  80  1  0.96647500  0.42542900  0.91393900  1
  H  81  1  0.97168600  0.54559700  0.91290700  1
  H  82  1  0.04672400  0.52138000  0.93802700  1
  H  83  1  0.98641500  0.49620400  0.99754100  1
  H  84  1  0.93217600  0.47163800  0.97614200  1
  H  85  1  0.98093900  0.48813800  0.86317600  1
  H  86  1  0.86708300  0.44030600  0.90184000  1
  H  87  1  0.86797000  0.43770300  0.86175900  1
  H  90  1  0.06624500  0.52993700  0.86505700  1
  H  91  1  0.08860000  0.54110200  0.89123800  1
  H  93  1  0.90519800  0.43790100  0.93709400  1
  H  94  1  0.90858400  0.48078600  0.93621500  1
  H  98  1  0.00208800  0.63559000  0.89654100  1
  H  99  1  0.98977800  0.36022600  0.90066100  1
  H  100  1  0.94845400  0.45936700  0.82945800  1
  H  102  1  0.07723800  0.53183700  0.97334800  1
  H  127  1  0.76425200  0.13470000  0.87627600  1
  H  128  1  0.70019600  0.10459600  0.87164400  1
  H  129  1  0.58513200  0.10932100  0.87313500  1
  H  130  1  0.55550100  0.14357700  0.87862400  1
  H  131  1  0.64574300  0.22182800  0.91390800  1
  H  132  1  0.76067100  0.21657200  0.91289400  1
  H  133  1  0.66139500  0.14155700  0.93802400  1
  H  134  1  0.69653300  0.20188600  0.99753100  1
  H  135  1  0.72622000  0.25611700  0.97612400  1
  H  136  1  0.69399200  0.20730600  0.86316500  1
  H  137  1  0.76002300  0.32118000  0.90181100  1
  H  138  1  0.75654900  0.32027500  0.86173000  1
  H  141  1  0.65044300  0.12203200  0.86505100  1
  H  142  1  0.63924200  0.09966800  0.89123100  1
  H  144  1  0.71947700  0.28308400  0.93706500  1
  H  145  1  0.75897100  0.27968900  0.93620100  1
  H  149  1  0.82025200  0.18620200  0.89648000  1
  H  150  1  0.55726200  0.19854700  0.90072700  1
  H  151  1  0.69777300  0.23974100  0.82943000  1
  H  153  1  0.64130300  0.11106500  0.97335000  1
  H  178  1  0.69282200  0.70252500  0.37632400  1
  H  179  1  0.65886800  0.63845900  0.37168300  1
  H  180  1  0.53906900  0.52336800  0.37316300  1
  H  181  1  0.47518700  0.49371800  0.37868200  1
  H  182  1  0.48717000  0.58396000  0.41395600  1
  H  183  1  0.60734000  0.69891300  0.41292400  1
  H  184  1  0.58309400  0.59964700  0.43804600  1
  H  185  1  0.55789600  0.63477500  0.49755300  1
  H  186  1  0.53335000  0.66446100  0.47614800  1
  H  187  1  0.54991500  0.63222300  0.36318700  1
  H  188  1  0.50206400  0.69824400  0.40183500  1
  H  189  1  0.49946900  0.69474700  0.36175400  1
  H  192  1  0.59167900  0.58870200  0.36506900  1
  H  193  1  0.60284300  0.57750800  0.39125000  1
  H  195  1  0.49963900  0.65771800  0.43709000  1
  H  196  1  0.54252800  0.69721400  0.43622300  1
  H  200  1  0.69731400  0.75852600  0.39640800  1
  H  201  1  0.42197500  0.49543600  0.40069600  1
  H  202  1  0.52114200  0.63591600  0.32946700  1
  H  204  1  0.59349000  0.57954900  0.47337200  1
  H  229  1  0.19638900  0.49540900  0.37635800  1
  H  230  1  0.16630200  0.52937900  0.37170300  1
  H  231  1  0.17103600  0.64919300  0.37316300  1
  H  232  1  0.20528700  0.71307400  0.37865300  1
  H  233  1  0.28354400  0.70110200  0.41393400  1
  H  234  1  0.27831400  0.58092100  0.41291200  1
  H  235  1  0.20328300  0.60514500  0.43803800  1
  H  236  1  0.26360100  0.63032100  0.49754800  1
  H  237  1  0.31783800  0.65488600  0.47614500  1
  H  238  1  0.26905500  0.63838200  0.36318200  1
  H  239  1  0.38291700  0.68619200  0.40183800  1
  H  240  1  0.38202200  0.68879000  0.36175700  1
  H  243  1  0.18375300  0.59659200  0.36507300  1
  H  244  1  0.16139800  0.58541600  0.39125500  1
  H  246  1  0.34480700  0.68861900  0.43709400  1
  H  247  1  0.34142200  0.64573500  0.43621800  1
  H  251  1  0.24790800  0.49092900  0.39654400  1
  H  252  1  0.26021900  0.76628900  0.40070000  1
  H  253  1  0.30151100  0.66706700  0.32945100  1
  H  255  1  0.17277500  0.59468500  0.47336000  1
  H  280  1  0.48574600  0.99185600  0.37633100  1
  H  281  1  0.54979900  0.02195400  0.37168800  1
  H  282  1  0.66487600  0.01724200  0.37315100  1
  H  283  1  0.69452800  0.98299900  0.37864200  1
  H  284  1  0.60428700  0.90472200  0.41391000  1
  H  285  1  0.48933100  0.90993700  0.41289100  1
  H  286  1  0.58860200  0.98496000  0.43802300  1
  H  287  1  0.55347200  0.92462600  0.49752600  1
  H  288  1  0.52378900  0.87039600  0.47611800  1
  H  289  1  0.55603400  0.91922100  0.36316200  1
  H  290  1  0.49000800  0.80534100  0.40180100  1
  H  291  1  0.49349500  0.80625200  0.36172100  1
  H  294  1  0.59955700  0.00452900  0.36506900  1
  H  295  1  0.61075000  0.02686300  0.39125800  1
  H  297  1  0.53053800  0.84343500  0.43706000  1
  H  298  1  0.49104100  0.84682500  0.43619100  1
  H  302  1  0.42974900  0.94033600  0.39653200  1
  H  303  1  0.69278000  0.92803400  0.40072500  1
  H  304  1  0.55228800  0.88678100  0.32942700  1
  H  306  1  0.60869500  0.01544800  0.47335000  1
  H  331  1  0.20182500  0.70961200  0.18148800  1
  H  332  1  0.17132000  0.64604300  0.18813600  1
  H  333  1  0.17343800  0.53008400  0.18869900  1
  H  334  1  0.20568900  0.49857200  0.18243700  1
  H  335  1  0.28042400  0.58415500  0.14244800  1
  H  336  1  0.27822300  0.70102500  0.14178000  1
  H  337  1  0.19744900  0.60187600  0.12151000  1
  H  338  1  0.24848000  0.62584600  0.05859300  1
  H  339  1  0.30573700  0.65349500  0.07656200  1
  H  340  1  0.27663800  0.64411600  0.19243900  1
  H  341  1  0.38256700  0.69570100  0.14518900  1
  H  342  1  0.38923400  0.70318700  0.18496000  1
  H  345  1  0.18835800  0.59638300  0.19494900  1
  H  346  1  0.16293500  0.58302900  0.16986200  1
  H  348  1  0.33672500  0.64889100  0.11449500  1
  H  349  1  0.33722600  0.69044900  0.11339100  1
  H  353  1  0.25180500  0.76319800  0.15809300  1
  H  354  1  0.25749700  0.49720700  0.15739200  1
  H  355  1  0.33769100  0.70326100  0.22018200  1
  H  357  1  0.16166700  0.59011000  0.08759800  1
  H  382  1  0.47867800  0.49380200  0.18150800  1
  H  383  1  0.54225200  0.52687800  0.18815100  1
  H  384  1  0.65818800  0.64494300  0.18871700  1
  H  385  1  0.68969000  0.70869500  0.18246200  1
  H  386  1  0.60412100  0.69785000  0.14245100  1
  H  387  1  0.48722700  0.57877600  0.14181000  1
  H  388  1  0.58640200  0.59713800  0.12153400  1
  H  389  1  0.56237900  0.62410700  0.05860300  1
  H  390  1  0.53471800  0.65371500  0.07655500  1
  H  391  1  0.54424900  0.63424500  0.19245000  1
  H  392  1  0.49245200  0.68832100  0.14514900  1
  H  393  1  0.48499300  0.68756900  0.18491500  1
  H  396  1  0.59191200  0.59358900  0.19495900  1
  H  397  1  0.60524400  0.58148500  0.16987600  1
  H  399  1  0.53930400  0.68933400  0.11446100  1
  H  400  1  0.49776800  0.64825100  0.11338800  1
  H  404  1  0.42511200  0.49019400  0.15805500  1
  H  405  1  0.69104200  0.76186700  0.15732300  1
  H  406  1  0.48470700  0.63649200  0.22014700  1
  H  408  1  0.59815800  0.57308700  0.08762500  1
  H  433  1  0.69447800  0.98642900  0.18150300  1
  H  434  1  0.66140600  0.01692600  0.18814600  1
  H  435  1  0.54334800  0.01479900  0.18869700  1
  H  436  1  0.47958000  0.98254800  0.18243000  1
  H  437  1  0.49044100  0.90783700  0.14242500  1
  H  438  1  0.60953900  0.91004400  0.14177200  1
  H  439  1  0.59114300  0.99082700  0.12150700  1
  H  440  1  0.56414700  0.93982600  0.05857900  1
  H  441  1  0.53454100  0.88256000  0.07653700  1
  H  442  1  0.55414700  0.91159400  0.19242300  1
  H  443  1  0.49991400  0.80569600  0.14514200  1
  H  444  1  0.50071200  0.79900700  0.18491000  1
  H  447  1  0.59472000  0.99988600  0.19493900  1
  H  448  1  0.60679100  0.02532200  0.16985700  1
  H  450  1  0.49892400  0.85154100  0.11445600  1
  H  451  1  0.53999700  0.85106900  0.11336400  1
  H  455  1  0.69809800  0.93647600  0.15806200  1
  H  456  1  0.42640800  0.93074500  0.15737000  1
  H  457  1  0.55212600  0.85027500  0.22014500  1
  H  459  1  0.61520100  0.02662200  0.08759600  1
  H  484  1  0.04814000  0.41691700  0.68150200  1
  H  485  1  0.07864000  0.48048800  0.68815200  1
  H  486  1  0.07650800  0.59643100  0.68872800  1
  H  487  1  0.04424400  0.62793000  0.68247400  1
  H  488  1  0.96954900  0.54237600  0.64244900  1
  H  489  1  0.97173700  0.42548400  0.64179400  1
  H  490  1  0.05254700  0.52465100  0.62152800  1
  H  491  1  0.00155300  0.50064800  0.55859700  1
  H  492  1  0.94428300  0.47299400  0.57655100  1
  H  493  1  0.97329700  0.48246900  0.69244000  1
  H  494  1  0.86741200  0.43075200  0.64515300  1
  H  495  1  0.86071700  0.42328900  0.68492100  1
  H  498  1  0.06158600  0.53013800  0.69496700  1
  H  499  1  0.08703000  0.54349400  0.66988700  1
  H  501  1  0.91325900  0.47759100  0.61446200  1
  H  502  1  0.91278800  0.43604400  0.61338400  1
  H  506  1  0.99817700  0.36334000  0.65809700  1
  H  507  1  0.99243700  0.62928900  0.65737700  1
  H  508  1  0.91196100  0.42315200  0.72014700  1
  H  510  1  0.08835500  0.53642400  0.58762200  1
  H  535  1  0.77131800  0.63270500  0.68156700  1
  H  536  1  0.70774600  0.59965000  0.68819200  1
  H  537  1  0.59181400  0.48161000  0.68872600  1
  H  538  1  0.56031200  0.41784300  0.68248100  1
  H  539  1  0.64589400  0.42870100  0.64247200  1
  H  540  1  0.76276000  0.54778700  0.64180900  1
  H  541  1  0.66356500  0.52939100  0.62153300  1
  H  542  1  0.68758300  0.50240700  0.55860500  1
  H  543  1  0.71525800  0.47281400  0.57656300  1
  H  544  1  0.70580800  0.49239300  0.69245000  1
  H  545  1  0.75754100  0.43823600  0.64516300  1
  H  546  1  0.76503300  0.43903400  0.68493100  1
  H  549  1  0.65810300  0.53297100  0.69497200  1
  H  550  1  0.64473300  0.54505100  0.66989500  1
  H  552  1  0.71068900  0.43721400  0.61448000  1
  H  553  1  0.75222000  0.47830100  0.61338900  1
  H  557  1  0.82489100  0.63633300  0.65813300  1
  H  558  1  0.55897800  0.36468500  0.65734100  1
  H  559  1  0.76526000  0.49023600  0.72016100  1
  H  561  1  0.65182200  0.55344400  0.58762200  1
  H  586  1  0.55550300  0.14013500  0.68150000  1
  H  587  1  0.58855700  0.10960900  0.68814700  1
  H  588  1  0.70661000  0.11170800  0.68872000  1
  H  589  1  0.77037600  0.14396100  0.68246400  1
  H  590  1  0.75953100  0.21866900  0.64244200  1
  H  591  1  0.64045000  0.21646300  0.64174400  1
  H  592  1  0.65883900  0.13568100  0.62150100  1
  H  593  1  0.68589200  0.18669300  0.55857800  1
  H  594  1  0.71549900  0.24395700  0.57653900  1
  H  595  1  0.69578200  0.21489900  0.69242000  1
  H  596  1  0.75010300  0.32080900  0.64515500  1
  H  597  1  0.74928500  0.32749200  0.68492400  1
  H  600  1  0.65523500  0.12664600  0.69495500  1
  H  601  1  0.64316600  0.10119300  0.66988000  1
  H  603  1  0.75108500  0.27496400  0.61447000  1
  H  604  1  0.71002000  0.27544900  0.61336200  1
  H  608  1  0.55186700  0.19007700  0.65825300  1
  H  609  1  0.82354600  0.19574800  0.65741600  1
  H  610  1  0.69774100  0.27605000  0.72015400  1
  H  612  1  0.63481500  0.09989000  0.58759300  1
  H  615  1  0.51379300  0.26852500  0.91598100  1
  H  616  1  0.51744600  0.30227700  0.89739400  1
  H  617  1  0.53746500  0.31417500  0.92447500  1
  H  622  1  0.67602000  0.30134200  0.89079700  1
  H  623  1  0.68225100  0.33678200  0.87274200  1
  H  624  1  0.65898700  0.29171800  0.86298900  1
  H  631  1  0.94153400  0.67458100  0.91600400  1
  H  632  1  0.97160300  0.67088600  0.89741400  1
  H  633  1  0.96350700  0.65091300  0.92450800  1
  H  638  1  0.81207900  0.51231600  0.89092100  1
  H  639  1  0.84126500  0.50606500  0.87285600  1
  H  640  1  0.81945000  0.52931700  0.86310600  1
  H  647  1  0.91976500  0.24676500  0.91598200  1
  H  648  1  0.88601800  0.21668400  0.89738700  1
  H  649  1  0.87411400  0.22478800  0.92447100  1
  H  654  1  0.88695900  0.37619800  0.89084300  1
  H  655  1  0.85153300  0.34700800  0.87277200  1
  H  656  1  0.89660700  0.36882400  0.86303400  1
  H  663  1  0.73628700  0.85806000  0.41596200  1
  H  664  1  0.73259300  0.82428100  0.39738400  1
  H  665  1  0.71262500  0.81242200  0.42448100  1
  H  670  1  0.57401900  0.82522600  0.39088800  1
  H  671  1  0.56774100  0.78974800  0.37285200  1
  H  672  1  0.59098700  0.83479500  0.36306500  1
  H  679  1  0.30847400  0.45194200  0.41599300  1
  H  680  1  0.27839800  0.45563500  0.39740800  1
  H  681  1  0.28649700  0.47560600  0.42450400  1
  H  686  1  0.43791100  0.61421500  0.39091300  1
  H  687  1  0.40871900  0.62046300  0.37285000  1
  H  688  1  0.43053800  0.59721700  0.36309700  1
  H  695  1  0.33021000  0.87975200  0.41599200  1
  H  696  1  0.36397200  0.90984800  0.39740800  1
  H  697  1  0.37585600  0.90172100  0.42449200  1
  H  702  1  0.36303900  0.75033600  0.39084600  1
  H  703  1  0.39847300  0.77953700  0.37278300  1
  H  704  1  0.35340400  0.75772100  0.36303700  1
  H  711  1  0.31450200  0.86159400  0.13819400  1
  H  712  1  0.28291500  0.82847600  0.15650100  1
  H  713  1  0.29235200  0.81578600  0.13004300  1
  H  718  1  0.44055700  0.82701400  0.16886800  1
  H  719  1  0.40989400  0.79177200  0.18652400  1
  H  720  1  0.43144600  0.83688400  0.19618800  1
  H  727  1  0.32668800  0.45446900  0.13820500  1
  H  728  1  0.35980800  0.45600500  0.15651100  1
  H  729  1  0.37249700  0.47814800  0.13006000  1
  H  734  1  0.36122300  0.61507700  0.16892600  1
  H  735  1  0.39644700  0.61963700  0.18659300  1
  H  736  1  0.35132600  0.59606300  0.19623900  1
  H  743  1  0.73381500  0.87376600  0.13823200  1
  H  744  1  0.73227400  0.90535800  0.15652800  1
  H  745  1  0.71015200  0.89590300  0.13007000  1
  H  750  1  0.57318500  0.74771100  0.16892500  1
  H  751  1  0.56860700  0.77838300  0.18657300  1
  H  752  1  0.59217700  0.75684400  0.19624400  1
  H  759  1  0.93548600  0.26491200  0.63823600  1
  H  760  1  0.96705900  0.29804300  0.65654200  1
  H  761  1  0.95763300  0.31071400  0.63007500  1
  H  766  1  0.80941300  0.29949600  0.66888000  1
  H  767  1  0.84007500  0.33473900  0.68653600  1
  H  768  1  0.81852300  0.28962700  0.69620200  1
  H  775  1  0.92328000  0.67202600  0.63823400  1
  H  776  1  0.89017200  0.67049700  0.65655000  1
  H  777  1  0.87746900  0.64836600  0.63009500  1
  H  782  1  0.88872900  0.51141000  0.66893700  1
  H  783  1  0.85349700  0.50684000  0.68660000  1
  H  784  1  0.89861600  0.53041200  0.69625400  1
  H  791  1  0.51614800  0.25276900  0.63826500  1
  H  792  1  0.51772400  0.22119300  0.65655900  1
  H  793  1  0.53977900  0.23060800  0.63008000  1
  H  798  1  0.67685200  0.37883800  0.66881300  1
  H  799  1  0.68149200  0.34815867  0.68643100  1
  H  800  1  0.65795100  0.36971300  0.69615600  1
  H  807  1  0.68773300  0.49888400  0.76391900  1
  H  808  1  0.70942700  0.50140000  0.73833400  1
  H  809  1  0.73478200  0.52871400  0.76110400  1
  H  814  1  0.75860600  0.40318200  0.80497600  1
  H  815  1  0.73627100  0.37505500  0.78176600  1
  H  816  1  0.71108000  0.37446500  0.80543800  1
  H  823  1  0.99778900  0.50052800  0.76390500  1
  H  824  1  0.97861100  0.47888100  0.73831100  1
  H  825  1  0.98057800  0.45348200  0.76105200  1
  H  830  1  0.83125100  0.42964900  0.80501200  1
  H  831  1  0.82543600  0.45197400  0.78180400  1
  H  832  1  0.85006500  0.47717700  0.80546600  1
  H  839  1  0.68966100  0.19048600  0.76388800  1
  H  840  1  0.68713300  0.20961900  0.73829300  1
  H  841  1  0.65974000  0.20758900  0.76103200  1
  H  846  1  0.78502900  0.35704500  0.80499200  1
  H  847  1  0.81317200  0.36293500  0.78177400  1
  H  848  1  0.81382900  0.33833100  0.80542600  1
  H  855  1  0.56224200  0.62761400  0.26391000  1
  H  856  1  0.54053600  0.62511100  0.23833000  1
  H  857  1  0.51518300  0.59781800  0.26110700  1
  H  862  1  0.49147200  0.72342200  0.30496300  1
  H  863  1  0.51384200  0.75155200  0.28176000  1
  H  864  1  0.53900400  0.75211000  0.30544000  1
  H  871  1  0.25224300  0.62585500  0.26391500  1
  H  872  1  0.27137700  0.64748200  0.23831000  1
  H  873  1  0.26935900  0.67287800  0.26103600  1
  H  878  1  0.41878200  0.69700100  0.30503700  1
  H  879  1  0.42467100  0.67474200  0.28182000  1
  H  880  1  0.40005000  0.64948500  0.30547100  1
  H  887  1  0.56043300  0.93608500  0.26387800  1
  H  888  1  0.56294400  0.91692700  0.23828700  1
  H  889  1  0.59031500  0.91893200  0.26103500  1
  H  894  1  0.46496300  0.76951900  0.30497300  1
  H  895  1  0.43681300  0.76366200  0.28176500  1
  H  896  1  0.43618900  0.78826200  0.30542900  1
  H  903  1  0.69498000  0.62865200  0.00101800  1
  H  904  1  0.71014600  0.59708500  0.00137200  1
  H  905  1  0.71619600  0.62379100  0.02522800  1
  H  910  1  0.56196200  0.51053300  0.06821200  1
  H  911  1  0.55092200  0.48376100  0.04378000  1
  H  912  1  0.54081500  0.51902900  0.04525800  1
  H  919  1  0.12043500  0.49330800  0.00097600  1
  H  920  1  0.07370300  0.47813300  0.00133000  1
  H  921  1  0.09435600  0.47207200  0.02518100  1
  H  926  1  0.13528700  0.62627000  0.06820500  1
  H  927  1  0.11955500  0.63731900  0.04377800  1
  H  928  1  0.16493200  0.64743600  0.04525700  1
  H  935  1  0.55962600  0.06790600  0.00099700  1
  H  936  1  0.59119800  0.11463500  0.00135000  1
  H  937  1  0.56449300  0.09398300  0.02520400  1
  H  942  1  0.67773100  0.05298100  0.06818900  1
  H  943  1  0.70449900  0.06870200  0.04375500  1
  H  944  1  0.66922600  0.02333300  0.04523600  1
  H  951  1  0.55495900  0.49786700  0.50102900  1
  H  952  1  0.53981400  0.52945000  0.50137900  1
  H  953  1  0.53376300  0.50275400  0.52524000  1
  H  958  1  0.68801500  0.61598200  0.56820400  1
  H  959  1  0.69906100  0.64274500  0.54376900  1
  H  960  1  0.70915100  0.60746900  0.54525200  1
  H  967  1  0.12955500  0.63318300  0.50097700  1
  H  968  1  0.17628900  0.64837400  0.50133000  1
  H  969  1  0.15562700  0.65443100  0.52518000  1
  H  974  1  0.11477200  0.50028300  0.56824100  1
  H  975  1  0.13051100  0.48923000  0.54381900  1
  H  976  1  0.08512900  0.47909100  0.54529600  1
  H  983  1  0.69037500  0.05860200  0.50099200  1
  H  984  1  0.65879900  0.01187400  0.50134900  1
  H  985  1  0.68550500  0.03252700  0.52520500  1
  H  990  1  0.57227700  0.07353600  0.56818900  1
  H  991  1  0.54550400  0.05781000  0.54375700  1
  H  992  1  0.58077600  0.10318100  0.54523500  1
  C  1  1  0.70871300  0.47893100  0.89516900  1
  C  2  1  0.72284000  0.45975700  0.90657800  1
  C  3  1  0.70676200  0.47678900  0.94415000  1
  C  4  1  0.69217900  0.49587000  0.93307600  1
  C  5  1  0.67743300  0.51319800  0.94618000  1
  C  6  1  0.67679500  0.51237700  0.96992100  1
  C  7  1  0.69157600  0.49312200  0.98046700  1
  C  8  1  0.70617900  0.47566900  0.96783900  1
  C  9  1  0.73754300  0.44223800  0.89387500  1
  C  10  1  0.73893300  0.44412700  0.87027400  1
  C  11  1  0.72554500  0.46361100  0.85855000  1
  C  12  1  0.71027500  0.48034200  0.87137100  1
  C  13  1  0.65298000  0.47823700  0.90078200  1
  C  14  1  0.63807000  0.49610500  0.88867700  1
  C  15  1  0.69871800  0.55435900  0.88947000  1
  C  16  1  0.71404500  0.53682500  0.90153000  1
  C  17  1  0.72143700  0.59026000  0.88218700  1
  C  18  1  0.75902100  0.60777600  0.88548200  1
  C  19  1  0.77486500  0.59026900  0.89682200  1
  C  20  1  0.75172300  0.55565100  0.90571000  1
  C  21  1  0.63155800  0.44053100  0.90447600  1
  C  22  1  0.59698200  0.41965400  0.89494300  1
  C  23  1  0.58218900  0.43807000  0.88347600  1
  C  24  1  0.60222100  0.47577900  0.88072800  1
  C  37  1  0.69197700  0.49758100  0.90782300  1
  C  38  1  0.65980900  0.53523500  0.88320700  1
  C  41  1  0.72247700  0.45778800  0.93152400  1
  C  44  1  0.81205200  0.60498100  0.89769900  1
  C  45  1  0.72781800  0.46836300  0.83535100  1
  C  46  1  0.57939100  0.38214700  0.89566000  1
  C  50  1  0.66268800  0.53080800  0.98188400  1
  C  52  1  0.95693100  0.47952200  0.89515800  1
  C  53  1  0.92363500  0.46539900  0.90657100  1
  C  54  1  0.95675500  0.48149600  0.94413800  1
  C  55  1  0.99041500  0.49608300  0.93306100  1
  C  56  1  0.02249500  0.51084200  0.94616200  1
  C  57  1  0.02231800  0.51147600  0.96990300  1
  C  58  1  0.98828100  0.49669600  0.98045200  1
  C  59  1  0.95622300  0.48208300  0.96782800  1
  C  60  1  0.89140700  0.45068900  0.89387300  1
  C  61  1  0.89189800  0.44929600  0.87027200  1
  C  62  1  0.92476600  0.46269400  0.85854200  1
  C  63  1  0.95677300  0.47795400  0.87136000  1
  C  64  1  0.01196200  0.53527200  0.90076000  1
  C  65  1  0.04475000  0.55019500  0.88866500  1
  C  66  1  0.04237300  0.48955800  0.88945000  1
  C  67  1  0.00951800  0.47422600  0.90151700  1
  C  68  1  0.05554200  0.46683900  0.88214700  1
  C  69  1  0.03548100  0.42925500  0.88544000  1
  C  70  1  0.00213500  0.41341300  0.89678600  1
  C  71  1  0.99068500  0.43654900  0.90571900  1
  C  72  1  0.99565800  0.55667800  0.90443400  1
  C  73  1  0.00940300  0.59130200  0.89496400  1
  C  74  1  0.04261900  0.60610200  0.88350400  1
  C  75  1  0.06025700  0.58604100  0.88071300  1
  C  88  1  0.99232200  0.49627600  0.90780800  1
  C  89  1  0.06215400  0.52846900  0.88319400  1
  C  92  1  0.92203600  0.46577000  0.93151700  1
  C  95  1  0.97965100  0.37622200  0.89765200  1
  C  96  1  0.92723000  0.46040400  0.83534400  1
  C  97  1  0.98951400  0.60891800  0.89572200  1
  C  101  1  0.05486200  0.52559900  0.98186300  1
  C  103  1  0.70937500  0.23133000  0.89514300  1
  C  104  1  0.72854600  0.26463100  0.90655100  1
  C  105  1  0.71150100  0.23152600  0.94412400  1
  C  106  1  0.69242100  0.19786300  0.93305100  1
  C  107  1  0.67509000  0.16579000  0.94615700  1
  C  108  1  0.67590600  0.16597500  0.96989700  1
  C  109  1  0.69516100  0.20001300  0.98044200  1
  C  110  1  0.71261400  0.23206800  0.96781300  1
  C  111  1  0.74607100  0.29685200  0.89384700  1
  C  112  1  0.74421500  0.29634900  0.87024600  1
  C  113  1  0.72472400  0.26347700  0.85852200  1
  C  114  1  0.70797800  0.23147700  0.87134500  1
  C  115  1  0.71006100  0.17628700  0.90076400  1
  C  116  1  0.69219000  0.14350400  0.88866400  1
  C  117  1  0.63394200  0.14590600  0.88944500  1
  C  118  1  0.65147400  0.17877300  0.90150100  1
  C  119  1  0.59804300  0.13272700  0.88215700  1
  C  120  1  0.58052400  0.15279100  0.88544600  1
  C  121  1  0.59805900  0.18617000  0.89675300  1
  C  122  1  0.63264800  0.19762700  0.90567900  1
  C  123  1  0.74776400  0.19256600  0.90446200  1
  C  124  1  0.76864000  0.17885900  0.89493500  1
  C  125  1  0.75022400  0.14565500  0.88346500  1
  C  126  1  0.71251400  0.12797800  0.88071900  1
  C  139  1  0.69071800  0.19594400  0.90779900  1
  C  140  1  0.65306300  0.12611500  0.88318900  1
  C  143  1  0.73050500  0.26624000  0.93149800  1
  C  146  1  0.58335300  0.20865100  0.89761200  1
  C  147  1  0.72000300  0.26099300  0.83532000  1
  C  148  1  0.80614700  0.19876700  0.89565900  1
  C  152  1  0.65747200  0.13343800  0.98186100  1
  C  154  1  0.54128800  0.64761600  0.39516600  1
  C  155  1  0.52715600  0.66678500  0.40657500  1
  C  156  1  0.54322400  0.64974500  0.44414600  1
  C  157  1  0.55781000  0.63066800  0.43307300  1
  C  158  1  0.57255600  0.61334000  0.44617900  1
  C  159  1  0.57318300  0.61415200  0.46991900  1
  C  160  1  0.55839800  0.63340400  0.48046500  1
  C  161  1  0.54379600  0.65085800  0.46783700  1
  C  162  1  0.51244900  0.68430100  0.39387200  1
  C  163  1  0.51106000  0.68241300  0.37027200  1
  C  164  1  0.52445300  0.66293400  0.35854600  1
  C  165  1  0.53972900  0.64620600  0.37136800  1
  C  166  1  0.59701800  0.64831200  0.40078300  1
  C  167  1  0.61194100  0.63045300  0.38867900  1
  C  168  1  0.55129700  0.57219400  0.38946000  1
  C  169  1  0.53596500  0.58971900  0.40152400  1
  C  170  1  0.52857800  0.53630000  0.38216600  1
  C  171  1  0.49099500  0.51877200  0.38546500  1
  C  172  1  0.47514900  0.53629000  0.39679000  1
  C  173  1  0.49828400  0.57089900  0.40569300  1
  C  174  1  0.61844200  0.68601300  0.40448700  1
  C  175  1  0.65303100  0.70690000  0.39496800  1
  C  176  1  0.66783600  0.68849100  0.38350700  1
  C  177  1  0.64778800  0.65078900  0.38073000  1
  C  190  1  0.55802100  0.62896300  0.40782100  1
  C  191  1  0.59021100  0.59132200  0.38320600  1
  C  194  1  0.52751200  0.66874800  0.43152100  1
  C  197  1  0.43795900  0.52156200  0.39768300  1
  C  198  1  0.52217200  0.65817600  0.33534800  1
  C  199  1  0.67063200  0.74440800  0.39572200  1
  C  203  1  0.58728600  0.59571700  0.48188300  1
  C  205  1  0.29306700  0.64699400  0.39516300  1
  C  206  1  0.32636600  0.66111700  0.40657300  1
  C  207  1  0.29325200  0.64502500  0.44414300  1
  C  208  1  0.25959100  0.63043800  0.43306700  1
  C  209  1  0.22751600  0.61568400  0.44617200  1
  C  210  1  0.22769600  0.61505000  0.46991100  1
  C  211  1  0.26173200  0.62982400  0.48046000  1
  C  212  1  0.29378800  0.64443800  0.46783200  1
  C  213  1  0.35858900  0.67582200  0.39387300  1
  C  214  1  0.35809500  0.67718500  0.37027200  1
  C  215  1  0.32522700  0.66382400  0.35854400  1
  C  216  1  0.29322200  0.64856100  0.37136500  1
  C  217  1  0.23803800  0.59125100  0.40076800  1
  C  218  1  0.20524700  0.57632500  0.38867600  1
  C  219  1  0.20762600  0.63696400  0.38946800  1
  C  220  1  0.24048900  0.65230400  0.40152700  1
  C  221  1  0.19444900  0.65968300  0.38217500  1
  C  222  1  0.21448800  0.69726200  0.38548600  1
  C  223  1  0.24787000  0.71310900  0.39679200  1
  C  224  1  0.25932300  0.68997600  0.40572600  1
  C  225  1  0.25434000  0.56984300  0.40444000  1
  C  226  1  0.24059300  0.53522000  0.39497000  1
  C  227  1  0.20737700  0.52041900  0.38351100  1
  C  228  1  0.18973800  0.54048200  0.38072300  1
  C  241  1  0.25767900  0.63024500  0.40781600  1
  C  242  1  0.18784400  0.59805500  0.38320900  1
  C  245  1  0.32797000  0.66075100  0.43152000  1
  C  248  1  0.27034300  0.75029700  0.39765200  1
  C  249  1  0.32275600  0.66608000  0.33534400  1
  C  250  1  0.26048000  0.51760000  0.39572500  1
  C  254  1  0.19515400  0.60092600  0.48187400  1
  C  256  1  0.54064700  0.89519100  0.39513900  1
  C  257  1  0.52147500  0.86188900  0.40654500  1
  C  258  1  0.53850500  0.89498900  0.44411900  1
  C  259  1  0.55758300  0.92865600  0.43304700  1
  C  260  1  0.57490900  0.96072700  0.44615500  1
  C  261  1  0.57409300  0.96053900  0.46989400  1
  C  262  1  0.55483700  0.92650000  0.48043900  1
  C  263  1  0.53738900  0.89444800  0.46780800  1
  C  264  1  0.50395400  0.82966900  0.39384000  1
  C  265  1  0.50583700  0.83017400  0.37024000  1
  C  266  1  0.52531600  0.86304800  0.35851600  1
  C  267  1  0.54205400  0.89504800  0.37134100  1
  C  268  1  0.53994000  0.95022400  0.40076200  1
  C  269  1  0.55780500  0.98302500  0.38867800  1
  C  270  1  0.61606200  0.98063400  0.38944600  1
  C  271  1  0.59853700  0.94776400  0.40150000  1
  C  272  1  0.65196500  0.99382900  0.38216300  1
  C  273  1  0.66948300  0.97375800  0.38543600  1
  C  274  1  0.65196600  0.94038900  0.39675300  1
  C  275  1  0.61737400  0.92892100  0.40567900  1
  C  276  1  0.50223000  0.93392100  0.40443200  1
  C  277  1  0.48135400  0.94766900  0.39495800  1
  C  278  1  0.49977600  0.98090800  0.38352700  1
  C  279  1  0.53748000  0.99856300  0.38075300  1
  C  292  1  0.55929300  0.93057600  0.40779600  1
  C  293  1  0.59693400  0.00042300  0.38320400  1
  C  296  1  0.51950700  0.86027600  0.43149100  1
  C  299  1  0.66666667  0.91790067  0.39761700  1
  C  300  1  0.53005300  0.86553200  0.33531600  1
  C  301  1  0.44384800  0.92776700  0.39569200  1
  C  305  1  0.59252600  0.99307500  0.48185900  1
  C  307  1  0.29426400  0.65044700  0.15868400  1
  C  308  1  0.32537800  0.66563500  0.14491100  1
  C  309  1  0.28611600  0.64461900  0.10991500  1
  C  310  1  0.25440200  0.62944800  0.12313300  1
  C  311  1  0.22037900  0.61273200  0.11198500  1
  C  312  1  0.21693700  0.61084000  0.08830300  1
  C  313  1  0.24920300  0.62611400  0.07572000  1
  C  314  1  0.28305700  0.64255200  0.08631400  1
  C  315  1  0.35990200  0.68428800  0.15495400  1
  C  316  1  0.36388600  0.68856300  0.17832600  1
  C  317  1  0.33333333  0.67339933  0.19235900  1
  C  318  1  0.29893600  0.65441000  0.18235300  1
  C  319  1  0.23879700  0.65181100  0.15609400  1
  C  320  1  0.20758400  0.63567200  0.16977700  1
  C  321  1  0.20871700  0.57690400  0.17013700  1
  C  322  1  0.23998800  0.59265400  0.15651100  1
  C  323  1  0.19569800  0.54164500  0.17858800  1
  C  324  1  0.21451700  0.52298900  0.17483200  1
  C  325  1  0.24627200  0.53868900  0.16186100  1
  C  326  1  0.25740600  0.57255600  0.15192200  1
  C  327  1  0.25519300  0.68919100  0.15124000  1
  C  328  1  0.24313500  0.71129000  0.16103200  1
  C  329  1  0.21138100  0.69454300  0.17401000  1
  C  330  1  0.19355000  0.65716100  0.17799300  1
  C  343  1  0.25676800  0.63105900  0.14845700  1
  C  344  1  0.19027600  0.59716900  0.17666700  1
  C  347  1  0.32276900  0.66301000  0.12007000  1
  C  350  1  0.26808000  0.52334700  0.16054300  1
  C  351  1  0.33681900  0.68071200  0.21509000  1
  C  352  1  0.26375500  0.74858200  0.15956500  1
  C  356  1  0.18286800  0.59550700  0.07808700  1
  C  358  1  0.53785300  0.64543500  0.15868400  1
  C  359  1  0.52261800  0.66130100  0.14489800  1
  C  360  1  0.54362500  0.64301900  0.10991400  1
  C  361  1  0.55881600  0.62650700  0.12314300  1
  C  362  1  0.57552700  0.60918800  0.11200300  1
  C  363  1  0.57740600  0.60760900  0.08832100  1
  C  364  1  0.56212200  0.62458300  0.07573000  1
  C  365  1  0.54567200  0.64199500  0.08631400  1
  C  366  1  0.50393800  0.67715600  0.15492500  1
  C  367  1  0.49966300  0.67688500  0.17829400  1
  C  368  1  0.51486600  0.66158700  0.19234700  1
  C  369  1  0.53391000  0.64619300  0.18235300  1
  C  370  1  0.53646000  0.58858900  0.15612400  1
  C  371  1  0.55261000  0.57351400  0.16979500  1
  C  372  1  0.61139100  0.63340200  0.17012900  1
  C  373  1  0.59563800  0.64892700  0.15650800  1
  C  374  1  0.64667200  0.65562800  0.17855400  1
  C  375  1  0.66531200  0.69310600  0.17481500  1
  C  376  1  0.64960400  0.70916300  0.16185400  1
  C  377  1  0.61575200  0.68643500  0.15189700  1
  C  378  1  0.49907500  0.56761400  0.15128900  1
  C  379  1  0.47698600  0.53344500  0.16106700  1
  C  380  1  0.49374100  0.51843500  0.17403700  1
  C  381  1  0.53112500  0.53799200  0.17801700  1
  C  394  1  0.55722600  0.62730300  0.14846700  1
  C  395  1  0.59111800  0.59470500  0.17667500  1
  C  398  1  0.52521500  0.66127000  0.12005900  1
  C  401  1  0.66493400  0.74631200  0.16057300  1
  C  402  1  0.50757800  0.65781300  0.21507700  1
  C  403  1  0.43969400  0.51675000  0.15959700  1
  C  407  1  0.59275500  0.58888300  0.07811100  1
  C  409  1  0.54288800  0.89399000  0.15866300  1
  C  410  1  0.52699000  0.86288700  0.14488100  1
  C  411  1  0.54524800  0.90216600  0.10989400  1
  C  412  1  0.56177200  0.93387200  0.12311900  1
  C  413  1  0.57908300  0.96790000  0.11197800  1
  C  414  1  0.58064300  0.97135500  0.08829600  1
  C  415  1  0.56366900  0.93909500  0.07570600  1
  C  416  1  0.54625100  0.90523400  0.08629300  1
  C  417  1  0.51112500  0.82835600  0.15491400  1
  C  418  1  0.51141700  0.82435700  0.17828400  1
  C  419  1  0.52677100  0.85486500  0.19232700  1
  C  420  1  0.54216200  0.88930300  0.18233000  1
  C  421  1  0.59972200  0.94945800  0.15608700  1
  C  422  1  0.61479400  0.98067900  0.16976400  1
  C  423  1  0.55488600  0.97953700  0.17012200  1
  C  424  1  0.53936900  0.94826500  0.15649600  1
  C  425  1  0.53264700  0.99256100  0.17856700  1
  C  426  1  0.49517100  0.97372700  0.17481900  1
  C  427  1  0.47911900  0.94198100  0.16183700  1
  C  428  1  0.50185700  0.93085300  0.15190000  1
  C  429  1  0.62070000  0.93305500  0.15124900  1
  C  430  1  0.65485900  0.94512500  0.16103900  1
  C  431  1  0.66987300  0.97689500  0.17400300  1
  C  432  1  0.65033400  0.99475000  0.17796000  1
  C  445  1  0.56100100  0.93149200  0.14844400  1
  C  446  1  0.59359100  0.99797800  0.17665500  1
  C  449  1  0.52699700  0.86550800  0.12004200  1
  C  452  1  0.44197100  0.92016800  0.16052800  1
  C  453  1  0.53057700  0.85139200  0.21505700  1
  C  454  1  0.67154000  0.92451200  0.15958500  1
  C  458  1  0.59938700  0.00542600  0.07808600  1
  C  460  1  0.95570200  0.47610400  0.65867800  1
  C  461  1  0.92459900  0.46088600  0.64489500  1
  C  462  1  0.96388600  0.48189000  0.60990900  1
  C  463  1  0.99559100  0.49707400  0.62313700  1
  C  464  1  0.02962100  0.51378500  0.61199700  1
  C  465  1  0.03307900  0.51566700  0.58831500  1
  C  466  1  0.00082200  0.50038900  0.57572400  1
  C  467  1  0.96695800  0.48394600  0.58630900  1
  C  468  1  0.89006700  0.44221700  0.65492600  1
  C  469  1  0.88606900  0.43794200  0.67829700  1
  C  470  1  0.91657100  0.45313600  0.69234800  1
  C  471  1  0.95100700  0.47215900  0.68234700  1
  C  472  1  0.01115500  0.47471300  0.65611700  1
  C  473  1  0.04237400  0.49085500  0.66979300  1
  C  474  1  0.04125500  0.54962900  0.67014300  1
  C  475  1  0.00999500  0.53388700  0.65650700  1
  C  476  1  0.05426400  0.58488300  0.67860300  1
  C  477  1  0.03543900  0.60353100  0.67485100  1
  C  478  1  0.00370200  0.58784000  0.66186100  1
  C  479  1  0.99260600  0.55400600  0.65188400  1
  C  480  1  0.99474300  0.43732700  0.65127600  1
  C  481  1  0.00681400  0.41523300  0.66105800  1
  C  482  1  0.03857700  0.43198400  0.67403100  1
  C  483  1  0.05640500  0.46936500  0.67801400  1
  C  496  1  0.99320500  0.49547700  0.64846100  1
  C  497  1  0.05968500  0.52936000  0.67668300  1
  C  500  1  0.92722600  0.46348900  0.62005400  1
  C  503  1  0.98187500  0.60316000  0.66056700  1
  C  504  1  0.91309400  0.44583200  0.71507600  1
  C  505  1  0.98621600  0.37793900  0.65958300  1
  C  509  1  0.06715100  0.53101000  0.57810700  1
  C  511  1  0.71216700  0.48115300  0.65868800  1
  C  512  1  0.72739600  0.46527800  0.64490500  1
  C  513  1  0.70635300  0.48351900  0.60991900  1
  C  514  1  0.69116100  0.50003200  0.62314500  1
  C  515  1  0.67443600  0.51733500  0.61200400  1
  C  516  1  0.67254200  0.51889600  0.58832200  1
  C  517  1  0.68783400  0.50192800  0.57573200  1
  C  518  1  0.70429800  0.48453100  0.58631900  1
  C  519  1  0.74609000  0.44944300  0.65493600  1
  C  520  1  0.75036600  0.44971700  0.67830700  1
  C  521  1  0.73518700  0.46504600  0.69235100  1
  C  522  1  0.71611400  0.48040800  0.68235700  1
  C  523  1  0.71352600  0.53798000  0.65611300  1
  C  524  1  0.69737900  0.55305300  0.66979300  1
  C  525  1  0.63861300  0.49314700  0.67014900  1
  C  526  1  0.65436700  0.47762700  0.65652300  1
  C  527  1  0.60334900  0.47090800  0.67859500  1
  C  528  1  0.58469800  0.43343500  0.67484100  1
  C  529  1  0.60042300  0.41738500  0.66189000  1
  C  530  1  0.63426300  0.44011300  0.65192100  1
  C  531  1  0.75089900  0.55897800  0.65124800  1
  C  532  1  0.77299700  0.59310100  0.66108100  1
  C  533  1  0.75624700  0.60810500  0.67406100  1
  C  534  1  0.71885000  0.58858400  0.67799900  1
  C  547  1  0.69277000  0.49926100  0.64847000  1
  C  548  1  0.65888000  0.53184800  0.67668800  1
  C  551  1  0.72477800  0.46528500  0.62006600  1
  C  554  1  0.58508700  0.38023500  0.66058900  1
  C  555  1  0.74246000  0.46883700  0.71508400  1
  C  556  1  0.81028900  0.60977300  0.65963600  1
  C  560  1  0.65720800  0.53763300  0.57811000  1
  C  562  1  0.70707000  0.23250900  0.65866300  1
  C  563  1  0.72299200  0.26361800  0.64488500  1
  C  564  1  0.70475800  0.22434400  0.60989400  1
  C  565  1  0.68822100  0.19263600  0.62311700  1
  C  566  1  0.67091700  0.15860900  0.61197400  1
  C  567  1  0.66936500  0.15516000  0.58829300  1
  C  568  1  0.68635600  0.18742100  0.57570500  1
  C  569  1  0.70376700  0.22128000  0.58629400  1
  C  570  1  0.73885500  0.29814700  0.65492300  1
  C  571  1  0.73856300  0.30214100  0.67829400  1
  C  572  1  0.72318300  0.27162500  0.69233100  1
  C  573  1  0.70777900  0.23719100  0.68233000  1
  C  574  1  0.65024500  0.17704500  0.65607500  1
  C  575  1  0.63516900  0.14584200  0.66976600  1
  C  576  1  0.69507100  0.14697500  0.67014100  1
  C  577  1  0.71059300  0.17823600  0.65650500  1
  C  578  1  0.71731200  0.13396400  0.67860300  1
  C  579  1  0.75478700  0.15278400  0.67485300  1
  C  580  1  0.77084100  0.18453700  0.66188000  1
  C  581  1  0.74811100  0.19565700  0.65192100  1
  C  582  1  0.62925100  0.19342200  0.65119100  1
  C  583  1  0.59512800  0.18141200  0.66102200  1
  C  584  1  0.58010600  0.14965300  0.67399900  1
  C  585  1  0.59964500  0.13180900  0.67797900  1
  C  598  1  0.68897000  0.19501000  0.64844100  1
  C  599  1  0.65636600  0.12854200  0.67667100  1
  C  602  1  0.72300900  0.26100200  0.62004600  1
  C  605  1  0.80799300  0.20633800  0.66055700  1
  C  606  1  0.71936900  0.27508800  0.71506200  1
  C  607  1  0.57845500  0.20203300  0.65953400  1
  C  611  1  0.65062400  0.12108900  0.57808100  1
  C  613  1  0.53161100  0.29608800  0.91024900  1
  C  614  1  0.56544800  0.30031200  0.90100200  1
  C  619  1  0.59984400  0.27117900  0.89282600  1
  C  620  1  0.62889500  0.30449100  0.88551700  1
  C  621  1  0.66356500  0.30891200  0.87753600  1
  C  626  1  0.59454300  0.33366200  0.89351700  1
  C  629  1  0.95126500  0.65674700  0.91028000  1
  C  630  1  0.92163600  0.62290000  0.90105700  1
  C  635  1  0.85809500  0.58849300  0.89291300  1
  C  636  1  0.86234700  0.55943400  0.88561000  1
  C  637  1  0.83208500  0.52475500  0.87764900  1
  C  642  1  0.92587900  0.59379400  0.89358000  1
  C  645  1  0.89220500  0.23702800  0.91024700  1
  C  646  1  0.88798800  0.26665000  0.90100900  1
  C  651  1  0.91712500  0.33018700  0.89285600  1
  C  652  1  0.88381700  0.32593200  0.88554300  1
  C  653  1  0.87940100  0.35619100  0.87757300  1
  C  658  1  0.85464100  0.26240200  0.89352100  1
  C  661  1  0.71845500  0.83049000  0.41024700  1
  C  662  1  0.68460300  0.82625900  0.40102300  1
  C  667  1  0.65019500  0.85538300  0.39285500  1
  C  668  1  0.62112600  0.82205900  0.38557900  1
  C  669  1  0.58643900  0.81762800  0.37762200  1
  C  674  1  0.65548800  0.79289600  0.39357000  1
  C  677  1  0.29873800  0.46977200  0.41027400  1
  C  678  1  0.32836400  0.50362200  0.40105000  1
  C  683  1  0.39190400  0.53803600  0.39290200  1
  C  684  1  0.38764700  0.56709400  0.38560400  1
  C  685  1  0.41790400  0.60177500  0.37764000  1
  C  690  1  0.32411600  0.53272800  0.39357500  1
  C  693  1  0.35777500  0.88949400  0.41026400  1
  C  694  1  0.36199600  0.85987800  0.40101800  1
  C  699  1  0.33286800  0.79634200  0.39286000  1
  C  700  1  0.36617900  0.80060300  0.38555200  1
  C  701  1  0.37060200  0.77034800  0.37757800  1
  C  706  1  0.39534800  0.86413100  0.39353700  1
  C  709  1  0.30394700  0.83406200  0.14425000  1
  C  710  1  0.33257500  0.82939000  0.15467100  1
  C  715  1  0.39539500  0.85785800  0.16458100  1
  C  716  1  0.39026000  0.82445500  0.17238700  1
  C  717  1  0.41968900  0.81968000  0.18153600  1
  C  722  1  0.32740500  0.79594600  0.16269600  1
  C  725  1  0.35421300  0.47144800  0.14426600  1
  C  726  1  0.35887300  0.50474000  0.15469400  1
  C  731  1  0.33038700  0.53907400  0.16460800  1
  C  732  1  0.36378400  0.56733800  0.17243100  1
  C  733  1  0.36854300  0.60152800  0.18159300  1
  C  738  1  0.39230700  0.53300800  0.16273600  1
  C  741  1  0.71683500  0.88431800  0.14428200  1
  C  742  1  0.68353500  0.85569300  0.15470400  1
  C  747  1  0.64919100  0.79287900  0.16462700  1
  C  748  1  0.62092100  0.79801400  0.17243300  1
  C  749  1  0.58672200  0.76858800  0.18159000  1
  C  754  1  0.65526300  0.86086500  0.16272800  1
  C  757  1  0.94603300  0.29244300  0.64428600  1
  C  758  1  0.91739600  0.29711800  0.65469300  1
  C  763  1  0.85457600  0.26864900  0.66460200  1
  C  764  1  0.85971000  0.30205500  0.67240500  1
  C  765  1  0.83027900  0.30683000  0.68155200  1
  C  770  1  0.92256600  0.33056200  0.66271700  1
  C  773  1  0.89575400  0.65505100  0.64429700  1
  C  774  1  0.89108800  0.62175300  0.65471900  1
  C  779  1  0.91956600  0.58741100  0.66463200  1
  C  780  1  0.88616800  0.55914700  0.67245000  1
  C  781  1  0.88140300  0.52495200  0.68160500  1
  C  786  1  0.85765000  0.59348400  0.66275700  1
  C  789  1  0.53313600  0.24221600  0.64429700  1
  C  790  1  0.56646700  0.27084900  0.65469000  1
  C  795  1  0.60083300  0.33366500  0.66460700  1
  C  796  1  0.62913000  0.32853500  0.67236300  1
  C  797  1  0.66335800  0.35796500  0.68148500  1
  C  802  1  0.59476600  0.26568400  0.66266700  1
  C  805  1  0.71250000  0.50226300  0.75647100  1
  C  806  1  0.71953300  0.47398500  0.76504500  1
  C  811  1  0.72671000  0.44661600  0.79863000  1
  C  812  1  0.72954700  0.42088800  0.78521000  1
  C  813  1  0.73414500  0.39168700  0.79486100  1
  C  818  1  0.72307300  0.44856600  0.75169100  1
  C  821  1  0.97640000  0.47577000  0.75644400  1
  C  822  1  0.94108800  0.46871300  0.76502900  1
  C  827  1  0.90657500  0.46153400  0.79863000  1
  C  828  1  0.87799700  0.45869600  0.78522300  1
  C  829  1  0.84421000  0.45410500  0.79489100  1
  C  834  1  0.91211000  0.46516100  0.75168900  1
  C  837  1  0.68622800  0.21183200  0.75642400  1
  C  838  1  0.71442500  0.24717600  0.76500500  1
  C  843  1  0.74172900  0.28170800  0.79860500  1
  C  844  1  0.76741500  0.31032100  0.78519600  1
  C  845  1  0.79656800  0.34413700  0.79486100  1
  C  850  1  0.73979400  0.27619200  0.75166200  1
  C  853  1  0.53747800  0.62425700  0.25646900  1
  C  854  1  0.53048800  0.65256200  0.26504500  1
  C  859  1  0.52332300  0.67994400  0.29862700  1
  C  860  1  0.52052000  0.70569000  0.28520600  1
  C  861  1  0.51594300  0.73490500  0.29485500  1
  C  866  1  0.52698900  0.67800500  0.25169000  1
  C  869  1  0.27359200  0.65062100  0.25644200  1
  C  870  1  0.30893400  0.65776700  0.26502800  1
  C  875  1  0.34345300  0.66499800  0.29863400  1
  C  876  1  0.37206400  0.66790600  0.28523300  1
  C  877  1  0.40587000  0.67255500  0.29490400  1
  C  882  1  0.33795300  0.66140600  0.25169000  1
  C  885  1  0.56384000  0.91471900  0.25642000  1
  C  886  1  0.53561200  0.87939200  0.26500300  1
  C  891  1  0.50829900  0.84485300  0.29860100  1
  C  892  1  0.48259600  0.81625800  0.28519100  1
  C  893  1  0.45343200  0.78244500  0.29485300  1
  C  898  1  0.51022300  0.85039400  0.25166000  1
  C  901  1  0.69790200  0.60934000  0.01143100  1
  C  902  1  0.66233300  0.58256800  0.02051000  1
  C  907  1  0.61392800  0.57428700  0.04502000  1
  C  908  1  0.59613400  0.53673800  0.04063500  1
  C  909  1  0.56042000  0.51102300  0.05000000  1
  C  914  1  0.64451900  0.54497700  0.01611300  1
  C  917  1  0.09819900  0.49037400  0.01139100  1
  C  918  1  0.10698500  0.52593300  0.02047800  1
  C  923  1  0.14710200  0.57433200  0.04499500  1
  C  924  1  0.12733700  0.59211800  0.04062000  1
  C  925  1  0.13732500  0.62782500  0.04999500  1
  C  930  1  0.08719900  0.54374100  0.01609100  1
  C  933  1  0.57894000  0.09013600  0.01140900  1
  C  934  1  0.60570700  0.08133300  0.02048600  1
  C  939  1  0.61397800  0.04120000  0.04499500  1
  C  940  1  0.65152700  0.06095100  0.04061200  1
  C  941  1  0.67723800  0.05094400  0.04997700  1
  C  946  1  0.64329800  0.10110200  0.01608900  1
  C  949  1  0.55205300  0.51719000  0.51143900  1
  C  950  1  0.58763100  0.54395500  0.52050900  1
  C  955  1  0.63603200  0.55222700  0.54501800  1
  C  956  1  0.65383600  0.58977500  0.54063100  1
  C  957  1  0.68955600  0.61548500  0.54999200  1
  C  962  1  0.60545300  0.58154600  0.51611200  1
  C  965  1  0.15179400  0.63612800  0.51139200  1
  C  966  1  0.14301900  0.60057500  0.52048300  1
  C  971  1  0.10292600  0.55218600  0.54501400  1
  C  972  1  0.12270600  0.53441300  0.54064600  1
  C  973  1  0.11273400  0.49871600  0.55003100  1
  C  978  1  0.16282300  0.58278200  0.51610500  1
  C  981  1  0.67106000  0.03637400  0.51140700  1
  C  982  1  0.64429400  0.04518500  0.52048000  1
  C  987  1  0.63602600  0.08531600  0.54499100  1
  C  988  1  0.59847600  0.06556400  0.54060900  1
  C  989  1  0.57276600  0.07556900  0.54997700  1
  C  994  1  0.60670200  0.02541100  0.51608800  1
  N  618  1  0.56968000  0.27079600  0.90036900  1
  N  625  1  0.62470300  0.33385800  0.88637700  1
  N  627  1  0.60378900  0.24243000  0.89354400  1
  N  628  1  0.59788500  0.36611400  0.89397000  1
  N  634  1  0.88788600  0.61866700  0.90043700  1
  N  641  1  0.89590600  0.56362700  0.88645700  1
  N  643  1  0.82539900  0.58454300  0.89365300  1
  N  644  1  0.95498800  0.59044900  0.89402400  1
  N  650  1  0.91750300  0.30039900  0.90039100  1
  N  657  1  0.85445100  0.29237300  0.88638900  1
  N  659  1  0.94586600  0.36288500  0.89360500  1
  N  660  1  0.82218700  0.23329500  0.89396700  1
  N  666  1  0.68037500  0.85577700  0.40038000  1
  N  673  1  0.62531400  0.79269100  0.38644900  1
  N  675  1  0.64625300  0.88413400  0.39356400  1
  N  676  1  0.65213500  0.76044100  0.39405100  1
  N  682  1  0.36211500  0.50786000  0.40042800  1
  N  689  1  0.35408600  0.56289700  0.38645300  1
  N  691  1  0.42460100  0.54199400  0.39364100  1
  N  692  1  0.29500700  0.53606900  0.39402200  1
  N  698  1  0.33248500  0.82612800  0.40039700  1
  N  705  1  0.39554400  0.83416400  0.38640400  1
  N  707  1  0.30412800  0.76364600  0.39359900  1
  N  708  1  0.42779800  0.89323900  0.39398600  1
  N  714  1  0.36641500  0.85862400  0.15592300  1
  N  721  1  0.35661200  0.79535900  0.17093600  1
  N  723  1  0.42823900  0.88628200  0.16432200  1
  N  724  1  0.29807500  0.76372900  0.16207800  1
  N  730  1  0.32963500  0.50934100  0.15594200  1
  N  737  1  0.39288000  0.56279000  0.17098600  1
  N  739  1  0.30196400  0.54349500  0.16434200  1
  N  740  1  0.42452500  0.53589700  0.16213200  1
  N  746  1  0.67893300  0.82185500  0.15596400  1
  N  753  1  0.62547000  0.83165800  0.17097400  1
  N  755  1  0.64478100  0.76003700  0.16438700  1
  N  756  1  0.65237900  0.89019600  0.16211300  1
  N  762  1  0.88355900  0.26788100  0.65594800  1
  N  769  1  0.89335600  0.33114900  0.67095500  1
  N  771  1  0.82173200  0.24022500  0.66434300  1
  N  772  1  0.95189600  0.36277800  0.66210100  1
  N  778  1  0.92032600  0.61715100  0.65596900  1
  N  785  1  0.85707100  0.56369600  0.67100200  1
  N  787  1  0.94799500  0.58299800  0.66437500  1
  N  788  1  0.82543300  0.59059800  0.66214800  1
  N  794  1  0.57106500  0.30468400  0.65596900  1
  N  801  1  0.62458400  0.29489200  0.67088400  1
  N  803  1  0.60523900  0.36650400  0.66438600  1
  N  804  1  0.59766100  0.23635900  0.66200400  1
  N  810  1  0.72153600  0.47155400  0.78765400  1
  N  817  1  0.72746200  0.42308300  0.76251500  1
  N  819  1  0.72672800  0.44525200  0.82108000  1
  N  820  1  0.71990200  0.44667000  0.72947200  1
  N  826  1  0.93667700  0.46671200  0.78764100  1
  N  833  1  0.88225100  0.46077300  0.76252900  1
  N  835  1  0.90521100  0.46151500  0.82108000  1
  N  836  1  0.91332800  0.46830600  0.72946700  1
  N  842  1  0.71684500  0.25158200  0.78761600  1
  N  849  1  0.76522700  0.30607400  0.76250200  1
  N  851  1  0.74308300  0.28307100  0.82105600  1
  N  852  1  0.74170700  0.27500000  0.72943900  1
  N  858  1  0.52847200  0.65498800  0.28765200  1
  N  865  1  0.52261900  0.70350200  0.26251300  1
  N  867  1  0.52329100  0.68130200  0.32107700  1
  N  868  1  0.53019000  0.67990300  0.22947300  1
  N  874  1  0.31333400  0.65976300  0.28764000  1
  N  881  1  0.36782700  0.66584700  0.26253700  1
  N  883  1  0.34481100  0.66502200  0.32108600  1
  N  884  1  0.33678400  0.65831300  0.22946500  1
  N  890  1  0.53319900  0.87497600  0.28761300  1
  N  897  1  0.48477800  0.82051300  0.26249600  1
  N  899  1  0.50695300  0.84348300  0.32105000  1
  N  900  1  0.50831000  0.85160700  0.22943800  1
  N  906  1  0.64588300  0.59515200  0.03445200  1
  N  913  1  0.61243200  0.52413100  0.02657100  1
  N  915  1  0.60016400  0.59088300  0.05702700  1
  N  916  1  0.65729500  0.52832500  0.00323700  1
  N  922  1  0.13602000  0.54238500  0.03442000  1
  N  929  1  0.09843300  0.57582200  0.02655700  1
  N  931  1  0.17746000  0.58809100  0.05700600  1
  N  932  1  0.05776500  0.53095700  0.00322000  1
  N  938  1  0.59311900  0.05229700  0.03442700  1
  N  945  1  0.66413900  0.08985500  0.02654700  1
  N  947  1  0.59737400  0.01084100  0.05700400  1
  N  948  1  0.65995400  0.13053000  0.00321500  1
  N  954  1  0.60407500  0.53136800  0.53445300  1
  N  961  1  0.63754400  0.60238800  0.52656600  1
  N  963  1  0.64978800  0.53562500  0.55702800  1
  N  964  1  0.59268000  0.59820200  0.50323600  1
  N  970  1  0.11399000  0.58412400  0.53442900  1
  N  977  1  0.15160500  0.55071000  0.52658000  1
  N  979  1  0.07256500  0.53841900  0.55702300  1
  N  980  1  0.19225200  0.59556600  0.50323100  1
  N  986  1  0.65688500  0.07421900  0.53442100  1
  N  993  1  0.58586300  0.03665900  0.52654800  1
  N  995  1  0.65263100  0.11567600  0.55700000  1
  N  996  1  0.59004500  0.99598200  0.50321400  1
