# generated using pymatgen
data_H9C18N6O5
_symmetry_space_group_name_H-M   'P 1'
_cell_length_a   51.53700000
_cell_length_b   51.53700000
_cell_length_c   69.87630000
_cell_angle_alpha   90.00000000
_cell_angle_beta   90.00000000
_cell_angle_gamma   90.00000000
_symmetry_Int_Tables_number   1
_chemical_formula_structural   H9C18N6O5
_chemical_formula_sum   'H288 C576 N192 O160'
_cell_volume   185595.81091495
_cell_formula_units_Z   32
loop_
 _symmetry_equiv_pos_site_id
 _symmetry_equiv_pos_as_xyz
  1  'x, y, z'
loop_
 _atom_site_type_symbol
 _atom_site_label
 _atom_site_symmetry_multiplicity
 _atom_site_fract_x
 _atom_site_fract_y
 _atom_site_fract_z
 _atom_site_occupancy
  H  7  1  0.13433600  0.43347700  0.87175700  1
  H  16  1  0.17796600  0.36428200  0.88103500  1
  H  17  1  0.12435900  0.40226500  0.80654800  1
  H  18  1  0.18606000  0.39052000  0.94762100  1
  H  19  1  0.19426100  0.38574300  0.85096500  1
  H  20  1  0.17386500  0.44457400  0.89141400  1
  H  25  1  0.18871400  0.34525900  0.92796700  1
  H  26  1  0.19127400  0.37129900  0.81653400  1
  H  27  1  0.11197700  0.45463900  0.82717900  1
  H  28  1  0.20458700  0.45331700  0.92751400  1
  H  35  1  0.36218700  0.55722000  0.37156600  1
  H  44  1  0.31843400  0.62629000  0.38097600  1
  H  45  1  0.37208600  0.58863200  0.30639700  1
  H  46  1  0.31016600  0.59966900  0.44749900  1
  H  47  1  0.30217300  0.60489800  0.35085300  1
  H  48  1  0.32264000  0.54596200  0.39117700  1
  H  53  1  0.30747500  0.64507100  0.42797000  1
  H  54  1  0.30515000  0.61944100  0.31641900  1
  H  55  1  0.38457100  0.53625400  0.32692900  1
  H  56  1  0.29145100  0.53758700  0.42764800  1
  H  63  1  0.80717800  0.88499400  0.12308400  1
  H  72  1  0.87926200  0.92515800  0.13067400  1
  H  73  1  0.83531300  0.86955500  0.05753600  1
  H  74  1  0.85305600  0.94022600  0.19670900  1
  H  75  1  0.85884200  0.93989700  0.09999300  1
  H  76  1  0.79886400  0.92606400  0.14110400  1
  H  81  1  0.89887400  0.93902700  0.17697600  1
  H  82  1  0.87236800  0.93313400  0.06523100  1
  H  83  1  0.78253600  0.86253600  0.07997200  1
  H  84  1  0.79389800  0.96086400  0.17778300  1
  H  91  1  0.68909200  0.10595700  0.62298600  1
  H  100  1  0.61711300  0.06574100  0.63069900  1
  H  101  1  0.66097200  0.12107300  0.55737800  1
  H  102  1  0.64359800  0.05037100  0.69666200  1
  H  103  1  0.63754100  0.05087700  0.59999200  1
  H  104  1  0.69754600  0.06478000  0.64097500  1
  H  109  1  0.59767000  0.05168600  0.67703200  1
  H  110  1  0.62399100  0.05766700  0.56512100  1
  H  111  1  0.71370200  0.12831200  0.57982700  1
  H  112  1  0.70208800  0.02962900  0.67797900  1
  H  119  1  0.38047500  0.42686100  0.63179300  1
  H  128  1  0.31173600  0.38256400  0.62243300  1
  H  129  1  0.35367100  0.43438900  0.69830100  1
  H  130  1  0.34296800  0.37269000  0.55721000  1
  H  131  1  0.30013800  0.42205400  0.64187400  1
  H  132  1  0.35893700  0.44284000  0.60153600  1
  H  137  1  0.29073100  0.35998200  0.57784100  1
  H  138  1  0.29114500  0.45278000  0.67814200  1
  H  139  1  0.39911900  0.43688100  0.67869600  1
  H  140  1  0.37333600  0.43978300  0.56697600  1
  H  147  1  0.11576600  0.56366200  0.13179300  1
  H  156  1  0.18444600  0.60811100  0.12239300  1
  H  157  1  0.14265600  0.55615000  0.19825900  1
  H  158  1  0.15290100  0.61819700  0.05727100  1
  H  159  1  0.19610400  0.56868500  0.14179900  1
  H  160  1  0.13721300  0.54786500  0.10149600  1
  H  165  1  0.20531900  0.63076500  0.07781100  1
  H  166  1  0.20550500  0.53812800  0.17784700  1
  H  167  1  0.09720300  0.55359300  0.17866700  1
  H  168  1  0.12277800  0.55077800  0.06706300  1
  H  175  1  0.69170800  0.87089000  0.37824500  1
  H  184  1  0.63819100  0.93593400  0.37381200  1
  H  185  1  0.73126900  0.90234100  0.43787100  1
  H  186  1  0.62548900  0.90701500  0.30853800  1
  H  187  1  0.67466900  0.94772200  0.39410300  1
  H  188  1  0.70018900  0.89426700  0.34943300  1
  H  193  1  0.61239000  0.95864600  0.33122400  1
  H  194  1  0.70672600  0.95614900  0.43066900  1
  H  195  1  0.72848900  0.85446800  0.41908900  1
  H  196  1  0.69388700  0.87895400  0.31541000  1
  H  203  1  0.80456100  0.11977200  0.87826500  1
  H  212  1  0.85823500  0.05486500  0.87382800  1
  H  213  1  0.76519900  0.08830300  0.93795900  1
  H  214  1  0.87076700  0.08378200  0.80853400  1
  H  215  1  0.82180800  0.04300600  0.89416600  1
  H  216  1  0.79607900  0.09633700  0.84948100  1
  H  221  1  0.88401000  0.03218000  0.83123000  1
  H  222  1  0.79003300  0.03424800  0.93052400  1
  H  223  1  0.76786100  0.13618500  0.91917800  1
  H  224  1  0.80231200  0.11166400  0.81545600  1
  H  231  1  0.85968600  0.55533700  0.12340400  1
  H  240  1  0.81916200  0.62724500  0.11536100  1
  H  241  1  0.87392400  0.58328200  0.18917700  1
  H  242  1  0.80442100  0.60055000  0.04942900  1
  H  243  1  0.80426200  0.60680200  0.14607500  1
  H  244  1  0.81867100  0.54672600  0.10529600  1
  H  249  1  0.80632600  0.64653400  0.06920900  1
  H  250  1  0.81043800  0.62019200  0.18100000  1
  H  251  1  0.88097800  0.53017300  0.16645300  1
  H  252  1  0.78398300  0.54090100  0.06904900  1
  H  259  1  0.63673000  0.43544100  0.62350200  1
  H  268  1  0.67726200  0.36357000  0.61536000  1
  H  269  1  0.62243300  0.40733300  0.68923600  1
  H  270  1  0.69232300  0.39060700  0.54951400  1
  H  271  1  0.69212700  0.38392300  0.64613400  1
  H  272  1  0.67780900  0.44412800  0.60547100  1
  H  277  1  0.69032400  0.34448300  0.56916800  1
  H  278  1  0.68587900  0.37046000  0.68108500  1
  H  279  1  0.61533900  0.46040900  0.66666667  1
  H  280  1  0.71291600  0.44944100  0.56881200  1
  H  287  1  0.19239300  0.10377400  0.87197200  1
  H  296  1  0.12351400  0.05360900  0.86956400  1
  H  297  1  0.16756900  0.12194300  0.93765800  1
  H  298  1  0.15374500  0.00672700  0.81247800  1
  H  299  1  0.14576400  0.04721700  0.89860600  1
  H  300  1  0.20094500  0.06611800  0.85295400  1
  H  305  1  0.10630800  0.01288500  0.83075500  1
  H  306  1  0.13158200  0.05835800  0.93312300  1
  H  307  1  0.22051200  0.12769300  0.91211000  1
  H  308  1  0.20665800  0.02991300  0.81678600  1
  H  315  1  0.30409400  0.88651500  0.37203400  1
  H  324  1  0.37290300  0.93670800  0.36946100  1
  H  325  1  0.32883000  0.86884800  0.43782500  1
  H  326  1  0.34256600  0.98351200  0.31238600  1
  H  327  1  0.35061100  0.94331200  0.39849800  1
  H  328  1  0.29543700  0.92416200  0.35295600  1
  H  333  1  0.39000900  0.97739000  0.33061700  1
  H  334  1  0.36477500  0.93223000  0.43315000  1
  H  335  1  0.27599200  0.86278300  0.41227800  1
  H  336  1  0.28992000  0.96047800  0.31658800  1
  H  343  1  0.62390400  0.55205600  0.36796700  1
  H  352  1  0.68858400  0.60631400  0.37266600  1
  H  353  1  0.65632100  0.51259100  0.30859100  1
  H  354  1  0.66010500  0.61814500  0.43815000  1
  H  355  1  0.70055200  0.57016400  0.35224100  1
  H  356  1  0.64720700  0.54390700  0.39676800  1
  H  361  1  0.71170300  0.63139900  0.41530200  1
  H  362  1  0.70986500  0.53819200  0.31602400  1
  H  363  1  0.60840800  0.51466800  0.32714100  1
  H  364  1  0.63189800  0.55011200  0.43096700  1
  H  371  1  0.87266100  0.43849900  0.86796800  1
  H  380  1  0.80792100  0.38431600  0.87275500  1
  H  381  1  0.84012700  0.47797000  0.80862600  1
  H  382  1  0.83671200  0.37235800  0.93815300  1
  H  383  1  0.79595700  0.42047100  0.85234900  1
  H  384  1  0.84946200  0.44665000  0.89680300  1
  H  389  1  0.78491400  0.35925100  0.91541200  1
  H  390  1  0.78637400  0.45227700  0.81629800  1
  H  391  1  0.88808900  0.47587600  0.82711700  1
  H  392  1  0.86480300  0.44062200  0.93089300  1
  H  399  1  0.30474100  0.12054300  0.61891600  1
  H  408  1  0.35562800  0.05215600  0.62152800  1
  H  409  1  0.25853100  0.08965300  0.56173000  1
  H  410  1  0.37336700  0.07727900  0.68720000  1
  H  411  1  0.31822000  0.04321000  0.60246200  1
  H  412  1  0.29857800  0.09834400  0.64800300  1
  H  417  1  0.37975700  0.02463700  0.66214800  1
  H  418  1  0.28216300  0.03716700  0.56611500  1
  H  419  1  0.26401100  0.13718200  0.57999800  1
  H  420  1  0.30946000  0.11263600  0.68256300  1
  H  427  1  0.19183000  0.87016000  0.11892900  1
  H  436  1  0.14088900  0.93854800  0.12140300  1
  H  437  1  0.23806600  0.90095700  0.06171700  1
  H  438  1  0.12294700  0.91349800  0.18705800  1
  H  439  1  0.17828900  0.94743100  0.10234300  1
  H  440  1  0.19786200  0.89237900  0.14799000  1
  H  445  1  0.11672700  0.96622300  0.16185200  1
  H  446  1  0.21425400  0.95363800  0.06616300  1
  H  447  1  0.23258800  0.85343800  0.08001800  1
  H  448  1  0.18684900  0.87805700  0.18248400  1
  H  455  1  0.28321600  0.45480000  0.71346100  1
  H  462  1  0.22410900  0.36750700  0.79142000  1
  H  463  1  0.18314400  0.43307000  0.77176200  1
  H  464  1  0.27577100  0.37533700  0.70063100  1
  H  479  1  0.21368900  0.53580000  0.21319500  1
  H  486  1  0.27206900  0.62301700  0.29142300  1
  H  487  1  0.31374400  0.55812000  0.27138700  1
  H  488  1  0.22008900  0.61545900  0.20072800  1
  H  503  1  0.78925300  0.03772700  0.96819800  1
  H  510  1  0.87698000  0.96772900  0.04152900  1
  H  511  1  0.80605300  0.93482100  0.02385200  1
  H  512  1  0.86586000  0.02171900  0.95093000  1
  H  527  1  0.70700700  0.95274000  0.46817100  1
  H  534  1  0.61935800  0.02300700  0.54142700  1
  H  535  1  0.69054900  0.05555500  0.52396600  1
  H  536  1  0.63063300  0.96941300  0.45068300  1
  H  551  1  0.70582600  0.53674100  0.27828300  1
  H  558  1  0.77550200  0.62455600  0.20449800  1
  H  559  1  0.80814100  0.55340900  0.22196500  1
  H  560  1  0.72157900  0.61365700  0.29491800  1
  H  575  1  0.79012200  0.45403000  0.77847300  1
  H  582  1  0.72095800  0.36620700  0.70454600  1
  H  583  1  0.68774700  0.43696400  0.72228000  1
  H  584  1  0.77502600  0.37693000  0.79496200  1
  H  599  1  0.21308000  0.95154600  0.02930100  1
  H  606  1  0.12707700  0.02395900  0.95629100  1
  H  607  1  0.19972100  0.05430700  0.97265000  1
  H  608  1  0.13780200  0.97190300  0.04729100  1
  H  623  1  0.28359500  0.03934100  0.52934500  1
  H  630  1  0.36935100  0.96668900  0.45630000  1
  H  631  1  0.29650000  0.93669900  0.47251900  1
  H  632  1  0.35864800  0.01834700  0.54744700  1
  H  647  1  0.78224800  0.96108100  0.21163000  1
  H  654  1  0.72385900  0.87472000  0.28931400  1
  H  655  1  0.68261100  0.94089600  0.27111600  1
  H  656  1  0.77083300  0.88256700  0.19721000  1
  H  671  1  0.71323600  0.02976600  0.71182500  1
  H  678  1  0.77279100  0.11623100  0.78914000  1
  H  679  1  0.81278800  0.04897200  0.77158300  1
  H  680  1  0.72642600  0.10781700  0.69686600  1
  H  695  1  0.28958600  0.52980600  0.46286500  1
  H  702  1  0.37709100  0.47206500  0.54139700  1
  H  703  1  0.31103500  0.43113900  0.52261200  1
  H  704  1  0.36899700  0.52164900  0.45009800  1
  H  719  1  0.20700500  0.46161400  0.96277700  1
  H  726  1  0.11934500  0.51827500  0.04163600  1
  H  727  1  0.18439000  0.56031400  0.02228500  1
  H  728  1  0.12722000  0.46778700  0.95068800  1
  H  743  1  0.20501600  0.03095900  0.78006400  1
  H  750  1  0.27564900  0.11708200  0.70621900  1
  H  751  1  0.30671000  0.04463700  0.72232200  1
  H  752  1  0.22518400  0.10646300  0.79764200  1
  H  767  1  0.29199800  0.95924200  0.27993500  1
  H  774  1  0.22056400  0.87343200  0.20612800  1
  H  775  1  0.19044500  0.94639500  0.22193900  1
  H  776  1  0.27086600  0.88401000  0.29753700  1
  H  791  1  0.71355200  0.46008900  0.53473900  1
  H  798  1  0.62765300  0.51983500  0.45685100  1
  H  799  1  0.69508600  0.55939900  0.47457300  1
  H  800  1  0.63514200  0.47290700  0.54881300  1
  H  815  1  0.78279000  0.52990700  0.03489200  1
  H  822  1  0.86876900  0.47120200  0.95660000  1
  H  823  1  0.80226700  0.43057300  0.97490500  1
  H  824  1  0.86173900  0.51906300  0.04820600  1
  H  839  1  0.23648300  0.16951100  0.91830000  1
  H  846  1  0.19682600  0.30155600  0.93372800  1
  H  847  1  0.22546700  0.30603700  0.87733900  1
  H  848  1  0.17968400  0.18851700  0.87720300  1
  H  863  1  0.26001900  0.82097000  0.41850400  1
  H  870  1  0.29942800  0.68877000  0.43379900  1
  H  871  1  0.27095900  0.68453200  0.37735200  1
  H  872  1  0.31673000  0.80192200  0.37735100  1
  H  887  1  0.07518300  0.98312200  0.16699600  1
  H  894  1  0.94325300  0.94357500  0.18174300  1
  H  895  1  0.93878900  0.97371700  0.12577700  1
  H  896  1  0.05654200  0.92647500  0.12569000  1
  H  911  1  0.42127600  0.00764500  0.66718700  1
  H  918  1  0.55329200  0.04717300  0.68186000  1
  H  919  1  0.55757900  0.01718600  0.62584300  1
  H  920  1  0.43986700  0.06428300  0.62586000  1
  H  935  1  0.25287900  0.18215800  0.57690900  1
  H  942  1  0.29914100  0.31492700  0.56586000  1
  H  943  1  0.29611200  0.30690800  0.62575000  1
  H  944  1  0.32137700  0.18907400  0.60949100  1
  H  959  1  0.24383100  0.80845700  0.07709300  1
  H  966  1  0.19721200  0.67587400  0.06594700  1
  H  967  1  0.20030300  0.68369400  0.12584900  1
  H  968  1  0.17531500  0.80160700  0.10966200  1
  H  983  1  0.43494200  0.98840300  0.32781300  1
  H  990  1  0.56837900  0.94414800  0.31749500  1
  H  991  1  0.55946300  0.94655600  0.37732500  1
  H  992  1  0.44148300  0.91972300  0.36021800  1
  H  1007  1  0.06135900  0.00188600  0.82801900  1
  H  1014  1  0.92808900  0.04651000  0.81758900  1
  H  1015  1  0.93683900  0.04405600  0.87743000  1
  H  1016  1  0.05493500  0.07059700  0.86040400  1
  H  1031  1  0.76081700  0.82255400  0.07729400  1
  H  1038  1  0.79917600  0.69024800  0.06355200  1
  H  1039  1  0.76831900  0.68597400  0.11931100  1
  H  1040  1  0.81540100  0.80269800  0.11979200  1
  H  1055  1  0.73542200  0.16829600  0.57711400  1
  H  1062  1  0.69737500  0.30075900  0.56345700  1
  H  1063  1  0.72802300  0.30479300  0.61928800  1
  H  1064  1  0.68086300  0.18820300  0.61961600  1
  H  1079  1  0.74037400  0.80921600  0.42124600  1
  H  1086  1  0.69686100  0.67506700  0.42988700  1
  H  1087  1  0.69925900  0.68552200  0.37019700  1
  H  1088  1  0.67228100  0.80272100  0.38817900  1
  H  1103  1  0.75577400  0.18142400  0.92118500  1
  H  1110  1  0.79946100  0.31547700  0.92987000  1
  H  1111  1  0.79694100  0.30519500  0.87016900  1
  H  1112  1  0.82381300  0.18797300  0.88806500  1
  H  1127  1  0.57543600  0.48200800  0.67018000  1
  H  1134  1  0.44235800  0.44603100  0.68506000  1
  H  1135  1  0.43840000  0.47537700  0.62885000  1
  H  1136  1  0.55400600  0.42744500  0.62808700  1
  H  1151  1  0.92087900  0.50861400  0.17006600  1
  H  1158  1  0.05396300  0.54438600  0.18502300  1
  H  1159  1  0.05798000  0.51506200  0.12881000  1
  H  1160  1  0.94243600  0.56317500  0.12800900  1
  H  1175  1  0.93301200  0.48869800  0.82459600  1
  H  1182  1  0.06711700  0.44536400  0.81466900  1
  H  1183  1  0.05812300  0.44857300  0.87447100  1
  H  1184  1  0.94130500  0.42106900  0.85796900  1
  H  1199  1  0.56347700  0.50194500  0.32455200  1
  H  1206  1  0.42945900  0.54547900  0.31452300  1
  H  1207  1  0.43832800  0.54212400  0.37433100  1
  H  1208  1  0.55522700  0.56955100  0.35795700  1
  C  1  1  0.16549000  0.40874900  0.86424400  1
  C  2  1  0.14360900  0.42454600  0.86057500  1
  C  3  1  0.13381300  0.42771600  0.84183300  1
  C  4  1  0.14603600  0.41461300  0.82645600  1
  C  5  1  0.16847900  0.39925900  0.82970200  1
  C  6  1  0.17777000  0.39642000  0.84859500  1
  C  9  1  0.17492600  0.40502400  0.88324300  1
  C  10  1  0.17801000  0.42611800  0.89596600  1
  C  11  1  0.18672500  0.42215500  0.91487200  1
  C  12  1  0.19261100  0.39677600  0.92133400  1
  C  13  1  0.19013500  0.37540600  0.90872300  1
  C  14  1  0.18098600  0.37983200  0.88991400  1
  C  21  1  0.18250500  0.38832700  0.81482700  1
  C  22  1  0.11209900  0.44275200  0.83841300  1
  C  23  1  0.18840300  0.44281800  0.92719700  1
  C  24  1  0.19483900  0.35036000  0.91502500  1
  C  29  1  0.33099200  0.58191300  0.36409300  1
  C  30  1  0.35289200  0.56615500  0.36039700  1
  C  31  1  0.36269900  0.56306400  0.34165100  1
  C  32  1  0.35044600  0.57618300  0.32629400  1
  C  33  1  0.32797200  0.59148400  0.32956400  1
  C  34  1  0.31868000  0.59425300  0.34846400  1
  C  37  1  0.32153800  0.58554700  0.38309700  1
  C  38  1  0.31846300  0.56439300  0.39576600  1
  C  39  1  0.30966500  0.56826000  0.41466400  1
  C  40  1  0.30371200  0.59359900  0.42117400  1
  C  41  1  0.30621700  0.61503100  0.40862500  1
  C  42  1  0.31542800  0.61070200  0.38981900  1
  C  49  1  0.31389100  0.60239900  0.31471000  1
  C  50  1  0.38443100  0.54805500  0.33821200  1
  C  51  1  0.30795000  0.54754300  0.42693600  1
  C  52  1  0.30146500  0.64004400  0.41498300  1
  C  57  1  0.83406600  0.91369600  0.11439000  1
  C  58  1  0.81659300  0.89288900  0.11154600  1
  C  59  1  0.81213800  0.88244800  0.09314200  1
  C  60  1  0.82567400  0.89285300  0.07724600  1
  C  61  1  0.84294900  0.91402800  0.07971600  1
  C  62  1  0.84699400  0.92406900  0.09827000  1
  C  65  1  0.83841400  0.92433100  0.13296300  1
  C  66  1  0.81752400  0.92963000  0.14546600  1
  C  67  1  0.82194400  0.93986700  0.16388800  1
  C  68  1  0.84758000  0.94498800  0.17011900  1
  C  69  1  0.86877300  0.94027700  0.15769900  1
  C  70  1  0.86389100  0.92969800  0.13936500  1
  C  77  1  0.85423400  0.92666300  0.06436300  1
  C  78  1  0.79522700  0.86192300  0.09066600  1
  C  79  1  0.80149100  0.94326500  0.17618100  1
  C  80  1  0.89400500  0.94433600  0.16379100  1
  C  85  1  0.66226100  0.07718100  0.61433800  1
  C  86  1  0.67969700  0.09800700  0.61146000  1
  C  87  1  0.68413400  0.10839700  0.59303800  1
  C  88  1  0.67063700  0.09789700  0.57715700  1
  C  89  1  0.65340300  0.07669800  0.57966700  1
  C  90  1  0.64936300  0.06671800  0.59823800  1
  C  93  1  0.65796700  0.06656100  0.63292100  1
  C  94  1  0.67889900  0.06122000  0.64537300  1
  C  95  1  0.67454500  0.05088500  0.66377600  1
  C  96  1  0.64893100  0.04574400  0.67004400  1
  C  97  1  0.62769300  0.05054300  0.65768300  1
  C  98  1  0.63250900  0.06118800  0.63936300  1
  C  105  1  0.64220300  0.06394000  0.56434100  1
  C  106  1  0.70101400  0.12893800  0.59052300  1
  C  107  1  0.69504900  0.04738500  0.67600900  1
  C  108  1  0.60248200  0.04646100  0.66381600  1
  C  113  1  0.33973700  0.42344600  0.63385100  1
  C  114  1  0.36483300  0.42970700  0.64061600  1
  C  115  1  0.36903200  0.43880700  0.65946700  1
  C  116  1  0.34757000  0.44106000  0.67201000  1
  C  117  1  0.32228700  0.43501800  0.66543400  1
  C  118  1  0.31853100  0.42633700  0.64649800  1
  C  121  1  0.33619600  0.41389900  0.61486500  1
  C  122  1  0.34840600  0.42624800  0.59919600  1
  C  123  1  0.34559300  0.41689500  0.58031200  1
  C  124  1  0.33046000  0.39428800  0.57711100  1
  C  125  1  0.31749300  0.38198200  0.59251300  1
  C  126  1  0.32059100  0.39187000  0.61123300  1
  C  133  1  0.30151800  0.43652000  0.67766900  1
  C  134  1  0.39398300  0.44355900  0.66591100  1
  C  135  1  0.35629000  0.43100700  0.56539000  1
  C  136  1  0.30251700  0.36021100  0.58913100  1
  C  141  1  0.15649800  0.56718100  0.13380900  1
  C  142  1  0.13143500  0.56081900  0.14059000  1
  C  143  1  0.12729100  0.55169200  0.15944000  1
  C  144  1  0.14877800  0.54951100  0.17196700  1
  C  145  1  0.17403300  0.55563600  0.16537400  1
  C  146  1  0.17773400  0.56433500  0.14643600  1
  C  149  1  0.15996700  0.57678600  0.11482800  1
  C  150  1  0.14769100  0.56449200  0.09916300  1
  C  151  1  0.15040700  0.57391100  0.08028900  1
  C  152  1  0.16551600  0.59653500  0.07709800  1
  C  153  1  0.17855300  0.60879000  0.09249000  1
  C  154  1  0.17553600  0.59884200  0.11120000  1
  C  161  1  0.19482500  0.55419800  0.17759200  1
  C  162  1  0.10236100  0.54686400  0.16590200  1
  C  163  1  0.13965600  0.55983100  0.06536300  1
  C  164  1  0.19352700  0.63055700  0.08909900  1
  C  169  1  0.68181800  0.91006700  0.38314700  1
  C  170  1  0.69239600  0.88561900  0.38807900  1
  C  171  1  0.70331900  0.88057200  0.40629100  1
  C  172  1  0.70367600  0.90077500  0.42001800  1
  C  173  1  0.69258500  0.92518900  0.41557300  1
  C  174  1  0.68209300  0.92976600  0.39723300  1
  C  177  1  0.67077300  0.91420400  0.36458600  1
  C  178  1  0.68273700  0.90365500  0.34809200  1
  C  179  1  0.67166400  0.90616100  0.32971300  1
  C  180  1  0.64804800  0.91999200  0.32768300  1
  C  181  1  0.63617500  0.93160100  0.34383500  1
  C  182  1  0.64744800  0.92832800  0.36211100  1
  C  189  1  0.69159100  0.94430900  0.42921100  1
  C  190  1  0.71312500  0.85615900  0.41059000  1
  C  191  1  0.68480200  0.89589300  0.31418800  1
  C  192  1  0.61341600  0.94535500  0.34154600  1
  C  197  1  0.81455100  0.08062700  0.88318800  1
  C  198  1  0.80391400  0.10505400  0.88810800  1
  C  199  1  0.79302100  0.11010900  0.90632800  1
  C  200  1  0.79275500  0.08993000  0.92007700  1
  C  201  1  0.80388700  0.06553200  0.91563800  1
  C  202  1  0.81434600  0.06094800  0.89728800  1
  C  205  1  0.82557900  0.07650000  0.86462100  1
  C  206  1  0.81356400  0.08701200  0.84813300  1
  C  207  1  0.82462200  0.08452900  0.82974700  1
  C  208  1  0.84827100  0.07076000  0.82770400  1
  C  209  1  0.86020200  0.05919500  0.84384800  1
  C  210  1  0.84894600  0.06245000  0.86213300  1
  C  217  1  0.80493100  0.04642900  0.92928600  1
  C  218  1  0.78315800  0.13450900  0.91061300  1
  C  219  1  0.81145500  0.09476100  0.81422300  1
  C  220  1  0.88299400  0.04550700  0.84153100  1
  C  225  1  0.83079400  0.58216900  0.13187300  1
  C  226  1  0.85161600  0.56475400  0.13487400  1
  C  227  1  0.86174700  0.56027000  0.15336700  1
  C  228  1  0.85103800  0.57371800  0.16918900  1
  C  229  1  0.82985900  0.59094300  0.16655300  1
  C  230  1  0.82012400  0.59503300  0.14791400  1
  C  233  1  0.82027400  0.58636000  0.11324400  1
  C  234  1  0.81506600  0.56533800  0.10083700  1
  C  235  1  0.80483600  0.56955300  0.08238600  1
  C  236  1  0.79964800  0.59510900  0.07602000  1
  C  237  1  0.80423300  0.61640400  0.08835800  1
  C  238  1  0.81477500  0.61176300  0.10673100  1
  C  245  1  0.81687600  0.60204200  0.18181800  1
  C  246  1  0.88213600  0.54326700  0.15605000  1
  C  247  1  0.80143300  0.54897300  0.07021300  1
  C  248  1  0.80006700  0.64152800  0.08213500  1
  C  253  1  0.66560600  0.40858600  0.63195200  1
  C  254  1  0.64478800  0.42599700  0.63496500  1
  C  255  1  0.63463200  0.43043700  0.65345700  1
  C  256  1  0.64532900  0.41695100  0.66926800  1
  C  257  1  0.66651400  0.39973500  0.66666667  1
  C  258  1  0.67626600  0.39569100  0.64798500  1
  C  261  1  0.67616100  0.40446100  0.61332700  1
  C  262  1  0.68141400  0.42553400  0.60097500  1
  C  263  1  0.69174600  0.42139500  0.58254500  1
  C  264  1  0.69696600  0.39586400  0.57613800  1
  C  265  1  0.69229700  0.37451600  0.58841000  1
  C  266  1  0.68167600  0.37908300  0.60676800  1
  C  273  1  0.67952400  0.38864300  0.68187800  1
  C  274  1  0.61425600  0.44746000  0.65614200  1
  C  275  1  0.69524500  0.44202800  0.57043400  1
  C  276  1  0.69648100  0.34941700  0.58213700  1
  C  281  1  0.16785800  0.07387600  0.88230600  1
  C  282  1  0.18411600  0.09592700  0.88398000  1
  C  283  1  0.18908500  0.10759500  0.90190900  1
  C  284  1  0.17694100  0.09765600  0.91854300  1
  C  285  1  0.16061600  0.07562500  0.91723900  1
  C  286  1  0.15656200  0.06390800  0.89924600  1
  C  289  1  0.16303700  0.06159600  0.86424000  1
  C  290  1  0.18270200  0.05911600  0.85024200  1
  C  291  1  0.17777300  0.04686700  0.83256500  1
  C  292  1  0.15303500  0.03611700  0.82873600  1
  C  293  1  0.13285200  0.03859500  0.84236000  1
  C  294  1  0.13822400  0.05139500  0.85984500  1
  C  301  1  0.15004600  0.06393900  0.93320200  1
  C  302  1  0.20540200  0.12869700  0.90331300  1
  C  303  1  0.19670200  0.04623700  0.81879000  1
  C  304  1  0.10824800  0.02881200  0.83863900  1
  C  309  1  0.32857000  0.91651300  0.38228400  1
  C  310  1  0.31234100  0.89444900  0.38402300  1
  C  311  1  0.30736600  0.88289100  0.40199000  1
  C  312  1  0.31945600  0.89297500  0.41860000  1
  C  313  1  0.33575100  0.91501900  0.41722600  1
  C  314  1  0.33982400  0.92661700  0.39919500  1
  C  317  1  0.33337200  0.92870300  0.36418300  1
  C  318  1  0.31367800  0.93114400  0.35020700  1
  C  319  1  0.31856000  0.94337900  0.33251800  1
  C  320  1  0.34328800  0.95412900  0.32865100  1
  C  321  1  0.36350600  0.95165900  0.34224600  1
  C  322  1  0.35817800  0.93888800  0.35975000  1
  C  329  1  0.34624700  0.92685500  0.43315000  1
  C  330  1  0.29107900  0.86177200  0.40345900  1
  C  331  1  0.29957300  0.94402000  0.31878200  1
  C  332  1  0.38809600  0.96144600  0.33848800  1
  C  337  1  0.66294600  0.56255900  0.36313000  1
  C  338  1  0.63868200  0.55157100  0.35816900  1
  C  339  1  0.63390600  0.54040100  0.33999600  1
  C  340  1  0.65416800  0.54030600  0.32631400  1
  C  341  1  0.67837200  0.55183500  0.33077200  1
  C  342  1  0.68270600  0.56249500  0.34908800  1
  C  345  1  0.66694300  0.57357700  0.38172400  1
  C  346  1  0.65650600  0.56139500  0.39817400  1
  C  347  1  0.65910200  0.57225300  0.41661300  1
  C  348  1  0.67290600  0.59585800  0.41876800  1
  C  349  1  0.68438500  0.60796200  0.40266300  1
  C  350  1  0.68101400  0.59691900  0.38431800  1
  C  357  1  0.69755000  0.55299000  0.31718500  1
  C  358  1  0.60972800  0.53002600  0.33568500  1
  C  359  1  0.64901200  0.55888600  0.43208300  1
  C  360  1  0.69821900  0.63064500  0.40510100  1
  C  365  1  0.83359800  0.42804000  0.86318500  1
  C  366  1  0.85785800  0.43900900  0.85819100  1
  C  367  1  0.86260600  0.45016200  0.84000800  1
  C  368  1  0.84231400  0.45026100  0.82635100  1
  C  369  1  0.81810400  0.43876500  0.83084400  1
  C  370  1  0.81380100  0.42812400  0.84917200  1
  C  373  1  0.82964600  0.41701500  0.88178400  1
  C  374  1  0.84017000  0.42916000  0.89821800  1
  C  375  1  0.83765300  0.41828000  0.91665700  1
  C  376  1  0.82383200  0.39468600  0.91882500  1
  C  377  1  0.81225600  0.38262300  0.90274100  1
  C  378  1  0.81556200  0.39368300  0.88439400  1
  C  385  1  0.79889500  0.43762800  0.81728100  1
  C  386  1  0.88678100  0.46053000  0.83566900  1
  C  387  1  0.84782300  0.43161700  0.93212000  1
  C  388  1  0.79840400  0.35996100  0.90520900  1
  C  393  1  0.31322600  0.08110100  0.61367600  1
  C  394  1  0.30275600  0.10578000  0.60921500  1
  C  395  1  0.28997800  0.11094500  0.59168400  1
  C  396  1  0.28781300  0.09070400  0.57808100  1
  C  397  1  0.29883600  0.06610800  0.58198000  1
  C  398  1  0.31104100  0.06137100  0.59970000  1
  C  401  1  0.32549300  0.07646200  0.63177500  1
  C  402  1  0.31535600  0.08768700  0.64868600  1
  C  403  1  0.32702600  0.08374300  0.66666667  1
  C  404  1  0.34921400  0.06763400  0.66806600  1
  C  405  1  0.35932700  0.05554600  0.65146500  1
  C  406  1  0.34767500  0.06039700  0.63351200  1
  C  413  1  0.29846500  0.04711000  0.56825100  1
  C  414  1  0.27996200  0.13542700  0.58787900  1
  C  415  1  0.31518600  0.09421500  0.68264900  1
  C  416  1  0.38049400  0.03930500  0.65294100  1
  C  421  1  0.18331400  0.90958000  0.11362500  1
  C  422  1  0.19382600  0.88490300  0.10921200  1
  C  423  1  0.20662800  0.87969500  0.09169900  1
  C  424  1  0.20877400  0.89989400  0.07806000  1
  C  425  1  0.19772400  0.92449000  0.08191200  1
  C  426  1  0.18549900  0.92927100  0.09962000  1
  C  429  1  0.17099900  0.91424900  0.13170400  1
  C  430  1  0.18107100  0.90301600  0.14863500  1
  C  431  1  0.16934000  0.90696500  0.16663700  1
  C  432  1  0.14716800  0.92309700  0.16795700  1
  C  433  1  0.13711000  0.93517800  0.15133500  1
  C  434  1  0.14880900  0.93031300  0.13340100  1
  C  441  1  0.19807500  0.94343600  0.06814700  1
  C  442  1  0.21667800  0.85521000  0.08794100  1
  C  443  1  0.18110000  0.89646900  0.18260100  1
  C  444  1  0.11593100  0.95139900  0.15278100  1
  C  449  1  0.28121200  0.41592900  0.70386100  1
  C  450  1  0.27136300  0.39131700  0.70867200  1
  C  452  1  0.24914900  0.40845500  0.73597200  1
  C  453  1  0.25907400  0.43364600  0.73217800  1
  C  454  1  0.27521000  0.43696400  0.71601200  1
  C  456  1  0.23275700  0.40320600  0.75173500  1
  C  457  1  0.23689800  0.38268900  0.76494400  1
  C  458  1  0.22057800  0.38131500  0.78124200  1
  C  459  1  0.20064800  0.39970500  0.78413300  1
  C  460  1  0.19698900  0.41899800  0.77018200  1
  C  473  1  0.21515400  0.57477600  0.20378000  1
  C  474  1  0.22476300  0.59945700  0.20866400  1
  C  476  1  0.24740700  0.58234100  0.23577900  1
  C  477  1  0.23774600  0.55706800  0.23190500  1
  C  478  1  0.22151500  0.55370400  0.21579700  1
  C  480  1  0.26380700  0.58765400  0.25153200  1
  C  481  1  0.25945500  0.60798900  0.26485400  1
  C  482  1  0.27576500  0.60937400  0.28115700  1
  C  483  1  0.29589100  0.59116800  0.28394300  1
  C  484  1  0.29976200  0.57206700  0.26988000  1
  C  497  1  0.82658000  0.03148300  0.95652400  1
  C  498  1  0.85064400  0.01958300  0.96018500  1
  C  500  1  0.83438200  0.00001200  0.98884400  1
  C  501  1  0.81005000  0.01250900  0.98640300  1
  C  502  1  0.80656900  0.02834100  0.97010400  1
  C  504  1  0.83913000  0.98248100  0.00399800  1
  C  505  1  0.86103300  0.98368300  0.01626500  1
  C  506  1  0.86209000  0.96622300  0.03192500  1
  C  507  1  0.84206200  0.94799000  0.03505600  1
  C  508  1  0.82132500  0.94726400  0.02201600  1
  C  521  1  0.66980700  0.95933100  0.45638100  1
  C  522  1  0.64580100  0.97137100  0.46000300  1
  C  524  1  0.66200900  0.99062700  0.48879400  1
  C  525  1  0.68626900  0.97797800  0.48639200  1
  C  526  1  0.68974600  0.96223200  0.47004800  1
  C  528  1  0.65729900  0.00812100  0.50397300  1
  C  529  1  0.63533600  0.00701200  0.51618500  1
  C  530  1  0.63430400  0.02444300  0.53186400  1
  C  531  1  0.65441600  0.04256200  0.53506300  1
  C  532  1  0.67522000  0.04319500  0.52208000  1
  C  545  1  0.71197800  0.57425400  0.28965000  1
  C  546  1  0.72370800  0.59833200  0.28575900  1
  C  548  1  0.74308200  0.58180400  0.25710400  1
  C  549  1  0.73074900  0.55743300  0.25979000  1
  C  550  1  0.71509700  0.55408200  0.27619900  1
  C  552  1  0.76048700  0.58647000  0.24185400  1
  C  553  1  0.75937600  0.60844700  0.22965100  1
  C  554  1  0.77689100  0.60956700  0.21402800  1
  C  555  1  0.79509600  0.58952300  0.21086700  1
  C  556  1  0.79569300  0.56867400  0.22381100  1
  C  569  1  0.78430900  0.41642400  0.78976500  1
  C  570  1  0.77270600  0.39228700  0.78586100  1
  C  572  1  0.75300300  0.40882100  0.75733000  1
  C  573  1  0.76518900  0.43326400  0.76003300  1
  C  574  1  0.78094300  0.43664200  0.77638600  1
  C  576  1  0.73558700  0.40409100  0.74209500  1
  C  577  1  0.73688300  0.38221700  0.72980400  1
  C  578  1  0.71941400  0.38109400  0.71415200  1
  C  579  1  0.70107800  0.40103100  0.71104900  1
  C  580  1  0.70028400  0.42176300  0.72408900  1
  C  593  1  0.17640800  0.96001200  0.04136600  1
  C  594  1  0.15290500  0.97304700  0.03784000  1
  C  596  1  0.16948600  0.99106200  0.00874800  1
  C  597  1  0.19320700  0.97741500  0.01105200  1
  C  598  1  0.19624200  0.96179700  0.02750800  1
  C  600  1  0.16522600  0.00840100  0.99342400  1
  C  601  1  0.14300800  0.00783200  0.98145700  1
  C  602  1  0.14226700  0.02506100  0.96566500  1
  C  603  1  0.16290300  0.04247000  0.96209800  1
  C  604  1  0.18402000  0.04251200  0.97481200  1
  C  617  1  0.32015300  0.03054300  0.54147200  1
  C  618  1  0.34358100  0.01737000  0.53795500  1
  C  620  1  0.32700400  0.99965600  0.50876300  1
  C  621  1  0.30336900  0.01345100  0.51105700  1
  C  622  1  0.30036900  0.02898600  0.52755800  1
  C  624  1  0.33119500  0.98235900  0.49340500  1
  C  625  1  0.35344300  0.98284200  0.48146600  1
  C  626  1  0.35412800  0.96565300  0.46564800  1
  C  627  1  0.33340700  0.94836200  0.46203200  1
  C  628  1  0.31225600  0.94840900  0.47471600  1
  C  641  1  0.77828600  0.92272000  0.20122000  1
  C  642  1  0.76723800  0.89845600  0.20556600  1
  C  644  1  0.74634600  0.91555500  0.23341000  1
  C  645  1  0.75733400  0.94039900  0.23004100  1
  C  646  1  0.77338900  0.94357000  0.21381600  1
  C  648  1  0.73050100  0.91035300  0.24945200  1
  C  649  1  0.73518100  0.88976500  0.26248700  1
  C  650  1  0.71984700  0.88859500  0.27928900  1
  C  651  1  0.70037300  0.90726700  0.28287400  1
  C  652  1  0.69612000  0.92661700  0.26905300  1
  C  665  1  0.71812900  0.06787900  0.70113300  1
  C  666  1  0.72956000  0.09199300  0.70539100  1
  C  668  1  0.74965600  0.07491500  0.73355500  1
  C  669  1  0.73823900  0.05024100  0.73029200  1
  C  670  1  0.72239200  0.04713800  0.71395100  1
  C  672  1  0.76546600  0.08001300  0.74963000  1
  C  673  1  0.76115900  0.10090000  0.76247100  1
  C  674  1  0.77650900  0.10207700  0.77926700  1
  C  675  1  0.79563900  0.08311300  0.78302800  1
  C  676  1  0.79952000  0.06344100  0.76939700  1
  C  689  1  0.32843200  0.52736500  0.45326400  1
  C  690  1  0.35299700  0.51750400  0.45819400  1
  C  692  1  0.33579000  0.49609500  0.48582100  1
  C  693  1  0.31063900  0.50602300  0.48189100  1
  C  694  1  0.30738100  0.52176200  0.46550400  1
  C  696  1  0.34100800  0.48010800  0.50182100  1
  C  697  1  0.36168200  0.48440600  0.51487100  1
  C  698  1  0.36312200  0.46844100  0.53135700  1
  C  699  1  0.34463200  0.44870100  0.53458900  1
  C  700  1  0.32515900  0.44488100  0.52080000  1
  C  713  1  0.16795200  0.46301900  0.95353200  1
  C  714  1  0.14326100  0.47242200  0.95859700  1
  C  716  1  0.16043500  0.49463700  0.98588800  1
  C  717  1  0.18574000  0.48521900  0.98180300  1
  C  718  1  0.18908000  0.46930200  0.96551700  1
  C  720  1  0.15509100  0.51066500  0.00184700  1
  C  721  1  0.13465300  0.50607200  0.01504700  1
  C  722  1  0.13311000  0.52211300  0.03148600  1
  C  723  1  0.15126400  0.54221100  0.03453400  1
  C  724  1  0.17049500  0.54631300  0.02060400  1
  C  737  1  0.21344700  0.06774500  0.79195500  1
  C  738  1  0.22632900  0.09128400  0.78825700  1
  C  740  1  0.24404800  0.07462000  0.75909100  1
  C  741  1  0.23057600  0.05083300  0.76158600  1
  C  742  1  0.21518900  0.04782000  0.77816200  1
  C  744  1  0.26105500  0.07893400  0.74357100  1
  C  745  1  0.26012000  0.10111800  0.73158000  1
  C  746  1  0.27701100  0.10191100  0.71559000  1
  C  747  1  0.29444500  0.08135600  0.71184900  1
  C  748  1  0.29487000  0.06027500  0.72459300  1
  C  761  1  0.28306900  0.92258300  0.29184100  1
  C  762  1  0.26999500  0.89916100  0.28811000  1
  C  764  1  0.25275500  0.91590600  0.25881300  1
  C  765  1  0.26644400  0.93956100  0.26133900  1
  C  766  1  0.28168900  0.94247100  0.27799800  1
  C  768  1  0.23577100  0.91174200  0.24325700  1
  C  769  1  0.23640500  0.88945100  0.23136300  1
  C  770  1  0.21944400  0.88872000  0.21541300  1
  C  771  1  0.20223200  0.90944300  0.21161400  1
  C  772  1  0.20212900  0.93065100  0.22424800  1
  C  785  1  0.67520500  0.46481000  0.54499400  1
  C  786  1  0.65112700  0.47612100  0.54046800  1
  C  788  1  0.66868300  0.49628300  0.51248300  1
  C  789  1  0.69334500  0.48499400  0.51603000  1
  C  790  1  0.69618800  0.46916800  0.53241100  1
  C  792  1  0.66380300  0.51207900  0.49635400  1
  C  793  1  0.64291700  0.50794400  0.48347700  1
  C  794  1  0.64182700  0.52341100  0.46673800  1
  C  795  1  0.66086600  0.54249400  0.46305800  1
  C  796  1  0.68057000  0.54616200  0.47669700  1
  C  809  1  0.82143600  0.52620900  0.04475400  1
  C  810  1  0.84566500  0.51535600  0.04006900  1
  C  812  1  0.82802700  0.49439300  0.01242900  1
  C  813  1  0.80318300  0.50517500  0.01616200  1
  C  814  1  0.80030500  0.52117800  0.03244600  1
  C  816  1  0.83299100  0.47855600  0.99633200  1
  C  817  1  0.85364200  0.48297000  0.98329700  1
  C  818  1  0.85479400  0.46742600  0.96660100  1
  C  819  1  0.83604500  0.44799700  0.96311000  1
  C  820  1  0.81658300  0.44406200  0.97689600  1
  C  833  1  0.20740500  0.17435400  0.89713100  1
  C  834  1  0.19440000  0.19339400  0.88634700  1
  C  836  1  0.21789800  0.22752200  0.90167900  1
  C  837  1  0.23241400  0.20941900  0.91253700  1
  C  838  1  0.22689700  0.18271700  0.90999600  1
  C  840  1  0.21838700  0.25451100  0.90473900  1
  C  841  1  0.20827800  0.26596500  0.92161400  1
  C  842  1  0.20501400  0.29322300  0.92191700  1
  C  843  1  0.21124500  0.30860600  0.90580900  1
  C  844  1  0.22138500  0.29595900  0.88958900  1
  C  857  1  0.28906400  0.81610600  0.39731200  1
  C  858  1  0.30203400  0.79705500  0.38651600  1
  C  860  1  0.27852400  0.76294400  0.40185900  1
  C  861  1  0.26404700  0.78105700  0.41273500  1
  C  862  1  0.26958500  0.80775600  0.41019600  1
  C  864  1  0.27797900  0.73594600  0.40487800  1
  C  865  1  0.28802200  0.72441800  0.42174700  1
  C  866  1  0.29127300  0.69715400  0.42199600  1
  C  867  1  0.28508700  0.68184100  0.40584100  1
  C  868  1  0.27500100  0.69455800  0.38963300  1
  C  881  1  0.07053500  0.95407700  0.14577200  1
  C  882  1  0.05159900  0.94121800  0.13479100  1
  C  884  1  0.01736300  0.96481800  0.14988500  1
  C  885  1  0.03536200  0.97923900  0.16089900  1
  C  886  1  0.06207100  0.97361000  0.15857000  1
  C  888  1  0.99037500  0.96529000  0.15290000  1
  C  889  1  0.97890300  0.95486800  0.16966300  1
  C  890  1  0.95161400  0.95195600  0.17001600  1
  C  891  1  0.93621000  0.95886200  0.15406900  1
  C  892  1  0.94890200  0.96914000  0.13791400  1
  C  905  1  0.42590200  0.03669400  0.64596300  1
  C  906  1  0.44482600  0.04956800  0.63498000  1
  C  908  1  0.47908300  0.02601900  0.65009100  1
  C  909  1  0.46109800  0.01158800  0.66111100  1
  C  910  1  0.43438300  0.01718300  0.65877400  1
  C  912  1  0.50608000  0.02553400  0.65307000  1
  C  913  1  0.51760300  0.03590600  0.66982900  1
  C  914  1  0.54489400  0.03882000  0.67013800  1
  C  915  1  0.56024700  0.03196000  0.65415400  1
  C  916  1  0.54750400  0.02172600  0.63800600  1
  C  929  1  0.28762100  0.18100500  0.59306400  1
  C  930  1  0.30590700  0.19687000  0.60233700  1
  C  932  1  0.28386200  0.23538600  0.59243500  1
  C  933  1  0.26449000  0.22057800  0.58303300  1
  C  934  1  0.26668800  0.19317100  0.58355800  1
  C  936  1  0.28518400  0.26270500  0.59252400  1
  C  937  1  0.28897900  0.27758100  0.57568600  1
  C  938  1  0.29487200  0.30424800  0.57779700  1
  C  939  1  0.29715600  0.31572700  0.59608700  1
  C  940  1  0.29350400  0.29982800  0.61221300  1
  C  953  1  0.20908500  0.80964200  0.09323900  1
  C  954  1  0.19079300  0.79379600  0.10252500  1
  C  956  1  0.21281600  0.75526200  0.09264300  1
  C  957  1  0.23220400  0.77004900  0.08324200  1
  C  958  1  0.23001900  0.79745900  0.08375200  1
  C  960  1  0.21142900  0.72794400  0.09269500  1
  C  961  1  0.20756000  0.71313700  0.07583300  1
  C  962  1  0.20154300  0.68649200  0.07790200  1
  C  963  1  0.19920700  0.67496800  0.09617400  1
  C  964  1  0.20294600  0.69080000  0.11232400  1
  C  977  1  0.43359800  0.95355300  0.34383000  1
  C  978  1  0.44936900  0.93519900  0.35312500  1
  C  980  1  0.48799200  0.95725700  0.34348700  1
  C  981  1  0.47328400  0.97669900  0.33407500  1
  C  982  1  0.44587400  0.97452000  0.33444900  1
  C  984  1  0.51531800  0.95610600  0.34380300  1
  C  985  1  0.53051300  0.95281300  0.32706400  1
  C  986  1  0.55733400  0.94784000  0.32936000  1
  C  987  1  0.56865800  0.94599300  0.34772400  1
  C  988  1  0.55241900  0.94885300  0.36375000  1
  C  1001  1  0.06276300  0.03674200  0.84402700  1
  C  1002  1  0.04702400  0.05512500  0.85332200  1
  C  1004  1  0.00836200  0.03313100  0.84368500  1
  C  1005  1  0.02303800  0.01365600  0.83428100  1
  C  1006  1  0.05045100  0.01578900  0.83465600  1
  C  1008  1  0.98103800  0.03435700  0.84397100  1
  C  1009  1  0.96589700  0.03770700  0.82721000  1
  C  1010  1  0.93908900  0.04277400  0.82947000  1
  C  1011  1  0.92772100  0.04465600  0.84781800  1
  C  1012  1  0.94390900  0.04173500  0.86386600  1
  C  1025  1  0.78905100  0.81723100  0.09900700  1
  C  1026  1  0.80084900  0.79809100  0.11043000  1
  C  1028  1  0.77699200  0.76435600  0.09494400  1
  C  1029  1  0.76342900  0.78265000  0.08359500  1
  C  1030  1  0.76970200  0.80922500  0.08590800  1
  C  1032  1  0.77631500  0.73737200  0.09190600  1
  C  1033  1  0.78715600  0.72585000  0.07530500  1
  C  1034  1  0.79049100  0.69860600  0.07515700  1
  C  1035  1  0.78367700  0.68328800  0.09117200  1
  C  1036  1  0.77286300  0.69599600  0.10712700  1
  C  1049  1  0.70719000  0.17364600  0.59882500  1
  C  1050  1  0.69541200  0.19279600  0.61024700  1
  C  1052  1  0.71931100  0.22650900  0.59476800  1
  C  1053  1  0.73284900  0.20820200  0.58341400  1
  C  1054  1  0.72654500  0.18163400  0.58572300  1
  C  1056  1  0.72005800  0.25350200  0.59176800  1
  C  1057  1  0.70930500  0.26509900  0.57516500  1
  C  1058  1  0.70601200  0.29234900  0.57506200  1
  C  1059  1  0.71278200  0.30760100  0.59112200  1
  C  1060  1  0.72351800  0.29482000  0.60707400  1
  C  1073  1  0.70575800  0.81055400  0.40497600  1
  C  1074  1  0.68762900  0.79482000  0.39541300  1
  C  1076  1  0.70969900  0.75616800  0.40499400  1
  C  1077  1  0.72890400  0.77085900  0.41469100  1
  C  1078  1  0.72661100  0.79827200  0.41447900  1
  C  1080  1  0.70872800  0.72883200  0.40433300  1
  C  1081  1  0.70547100  0.71319300  0.42085400  1
  C  1082  1  0.70054800  0.68642200  0.41818000  1
  C  1083  1  0.69870500  0.67556600  0.39966200  1
  C  1084  1  0.70156100  0.69221200  0.38386800  1
  C  1097  1  0.79037100  0.18011600  0.90489200  1
  C  1098  1  0.80845900  0.19586100  0.89529900  1
  C  1100  1  0.78635600  0.23449400  0.90487700  1
  C  1101  1  0.76718000  0.21979000  0.91459600  1
  C  1102  1  0.76951000  0.19237900  0.91439700  1
  C  1104  1  0.78734400  0.26183000  0.90424800  1
  C  1105  1  0.79068100  0.27741500  0.92078800  1
  C  1106  1  0.79570100  0.30417200  0.91814900  1
  C  1107  1  0.79756600  0.31507300  0.89964700  1
  C  1108  1  0.79461800  0.29847900  0.88383000  1
  C  1121  1  0.56931200  0.45371500  0.64862200  1
  C  1122  1  0.54977800  0.44207100  0.63748300  1
  C  1124  1  0.51666600  0.46648100  0.65325100  1
  C  1125  1  0.53536900  0.47985200  0.66435800  1
  C  1126  1  0.56181200  0.47321800  0.66176500  1
  C  1128  1  0.48971300  0.46772700  0.65640000  1
  C  1129  1  0.47807800  0.45748900  0.67316800  1
  C  1130  1  0.45079900  0.45437300  0.67335100  1
  C  1131  1  0.43556100  0.46080700  0.65721000  1
  C  1132  1  0.44835600  0.47117300  0.64113100  1
  C  1145  1  0.92706500  0.53690800  0.14852000  1
  C  1146  1  0.94662800  0.54852100  0.13739100  1
  C  1148  1  0.97968300  0.52402200  0.15314900  1
  C  1149  1  0.96094700  0.51067800  0.16424300  1
  C  1150  1  0.93452000  0.51737400  0.16165100  1
  C  1152  1  0.00663200  0.52274000  0.15632000  1
  C  1153  1  0.01825200  0.53296100  0.17310000  1
  C  1154  1  0.04553300  0.53605400  0.17330600  1
  C  1155  1  0.06078900  0.52961400  0.15717500  1
  C  1156  1  0.04801000  0.51926600  0.14108500  1
  C  1169  1  0.93257400  0.45425100  0.84109300  1
  C  1170  1  0.94879300  0.43652400  0.85061700  1
  C  1172  1  0.98687400  0.45920300  0.84056100  1
  C  1173  1  0.97167800  0.47803600  0.83089500  1
  C  1174  1  0.94431500  0.47524000  0.83137300  1
  C  1176  1  0.01423000  0.45852900  0.84084700  1
  C  1177  1  0.02944300  0.45493000  0.82414800  1
  C  1178  1  0.05618500  0.44954500  0.82650000  1
  C  1179  1  0.06741900  0.44755500  0.84489000  1
  C  1180  1  0.05121800  0.45102400  0.86087000  1
  C  1193  1  0.56393900  0.53637000  0.34107400  1
  C  1194  1  0.54772900  0.55411100  0.35059200  1
  C  1196  1  0.50963400  0.53149800  0.34048600  1
  C  1197  1  0.52481800  0.51265400  0.33082500  1
  C  1198  1  0.55218400  0.51540900  0.33133100  1
  C  1200  1  0.48228100  0.53221200  0.34074300  1
  C  1201  1  0.46710800  0.53586400  0.32403100  1
  C  1202  1  0.44036400  0.54126600  0.32635900  1
  C  1203  1  0.42909400  0.54322400  0.34474100  1
  C  1204  1  0.44526100  0.53970400  0.36073500  1
  N  451  1  0.25583400  0.38854100  0.72418700  1
  N  461  1  0.21301800  0.42013900  0.75492400  1
  N  465  1  0.25791000  0.36535900  0.76238800  1
  N  466  1  0.25406600  0.45447400  0.74487900  1
  N  471  1  0.18686400  0.40214400  0.79992200  1
  N  472  1  0.29794000  0.41789600  0.68957700  1
  N  475  1  0.24038700  0.60227900  0.22412300  1
  N  485  1  0.28373200  0.57090500  0.25462100  1
  N  489  1  0.23824500  0.62510900  0.26240900  1
  N  490  1  0.24308600  0.53619000  0.24448600  1
  N  495  1  0.30962600  0.58866100  0.29975000  1
  N  496  1  0.19829700  0.57274400  0.18958500  1
  N  499  1  0.85352000  0.00421900  0.97579400  1
  N  509  1  0.82056900  0.96432800  0.00737000  1
  N  513  1  0.88012000  0.00305200  0.01348600  1
  N  514  1  0.79023100  0.00980900  0.00030400  1
  N  519  1  0.83942500  0.93366600  0.05057100  1
  N  520  1  0.82371800  0.04658300  0.94136500  1
  N  523  1  0.64292900  0.98664700  0.47566000  1
  N  533  1  0.67594800  0.02616300  0.50741500  1
  N  537  1  0.61615600  0.98775500  0.51333000  1
  N  538  1  0.70601600  0.98045800  0.50037100  1
  N  543  1  0.65704300  0.05686900  0.55058700  1
  N  544  1  0.67265300  0.94433600  0.44115900  1
  N  547  1  0.73890300  0.60107700  0.27005100  1
  N  557  1  0.77860400  0.56788400  0.23843800  1
  N  561  1  0.74007500  0.62759000  0.23247400  1
  N  562  1  0.73342500  0.53743600  0.24602600  1
  N  567  1  0.80965200  0.58707600  0.19545500  1
  N  568  1  0.69701400  0.57150300  0.30488700  1
  N  571  1  0.75741600  0.38951300  0.77020500  1
  N  581  1  0.71734000  0.42256900  0.73873700  1
  N  585  1  0.75632900  0.36320000  0.73256000  1
  N  586  1  0.76229800  0.45330200  0.74632400  1
  N  591  1  0.68663200  0.40354300  0.69558800  1
  N  592  1  0.79942100  0.41919200  0.80492100  1
  N  595  1  0.15045600  0.98815700  0.02206800  1
  N  605  1  0.18444900  0.02569400  0.98962400  1
  N  609  1  0.12325000  0.98925900  0.98464700  1
  N  610  1  0.21279900  0.97879500  0.99687600  1
  N  615  1  0.16557800  0.05649500  0.94641900  1
  N  616  1  0.17867200  0.94513700  0.05668900  1
  N  619  1  0.34599600  0.00234200  0.52213700  1
  N  629  1  0.31188500  0.96518500  0.48955200  1
  N  633  1  0.37329500  0.00129400  0.48471500  1
  N  634  1  0.28382700  0.01228400  0.49683100  1
  N  639  1  0.33071000  0.93436100  0.44634600  1
  N  640  1  0.31791900  0.04532600  0.55684700  1
  N  643  1  0.75189200  0.89579200  0.22118200  1
  N  653  1  0.71125500  0.92760200  0.25328900  1
  N  657  1  0.75583600  0.87220300  0.25926700  1
  N  658  1  0.75352000  0.96089500  0.24324700  1
  N  663  1  0.68764600  0.90985200  0.29915400  1
  N  664  1  0.79506600  0.92413700  0.18693700  1
  N  667  1  0.74470600  0.09459500  0.72111800  1
  N  677  1  0.78438500  0.06247300  0.75363300  1
  N  681  1  0.74085100  0.11880000  0.75906000  1
  N  682  1  0.74146200  0.02987500  0.74369300  1
  N  687  1  0.80847200  0.08066900  0.79927200  1
  N  688  1  0.70159400  0.06655200  0.68669000  1
  N  691  1  0.35571600  0.50237200  0.47392400  1
  N  701  1  0.32397300  0.46056300  0.50534900  1
  N  705  1  0.37914500  0.50522200  0.51195600  1
  N  706  1  0.28980200  0.50144600  0.49467300  1
  N  711  1  0.34238500  0.43513100  0.55049100  1
  N  712  1  0.32659100  0.54384100  0.43881000  1
  N  715  1  0.14046500  0.48773000  0.97422600  1
  N  725  1  0.17179200  0.53055300  0.00519900  1
  N  729  1  0.11755000  0.48491000  0.01233200  1
  N  730  1  0.20668100  0.49044200  0.99435400  1
  N  735  1  0.15349400  0.55584200  0.05041000  1
  N  736  1  0.16990300  0.44634200  0.93921500  1
  N  739  1  0.24120800  0.09371800  0.77236600  1
  N  749  1  0.27836700  0.05979300  0.73959700  1
  N  753  1  0.24152600  0.12079600  0.73495700  1
  N  754  1  0.23184500  0.03117200  0.74745300  1
  N  759  1  0.30821200  0.07873900  0.69604300  1
  N  760  1  0.19863600  0.06560600  0.80732200  1
  N  763  1  0.25525400  0.89683000  0.27214200  1
  N  773  1  0.21867800  0.93105600  0.23922300  1
  N  777  1  0.25476100  0.86957000  0.23480800  1
  N  778  1  0.26549500  0.95919500  0.24717500  1
  N  783  1  0.18830800  0.91202300  0.19587800  1
  N  784  1  0.29768700  0.92464700  0.30731400  1
  N  787  1  0.64878500  0.49124800  0.52471100  1
  N  797  1  0.68143300  0.53094100  0.49241700  1
  N  801  1  0.62490100  0.48771400  0.48680200  1
  N  802  1  0.71397900  0.48830000  0.50286600  1
  N  807  1  0.66329300  0.55550800  0.44689100  1
  N  808  1  0.67631700  0.44823800  0.55941800  1
  N  811  1  0.84803800  0.50005700  0.02440700  1
  N  821  1  0.81565000  0.45936000  0.99257400  1
  N  825  1  0.87134600  0.50353600  0.98641900  1
  N  826  1  0.78237500  0.50122700  0.00324600  1
  N  831  1  0.83361200  0.43491100  0.94697500  1
  N  832  1  0.82025200  0.54300500  0.05902900  1
  N  835  1  0.19970100  0.21881400  0.88917800  1
  N  845  1  0.22397900  0.26981000  0.88945900  1
  N  849  1  0.19982400  0.25017000  0.93698000  1
  N  850  1  0.25155000  0.21828200  0.92550700  1
  N  855  1  0.20573800  0.33363100  0.90401400  1
  N  856  1  0.19812600  0.15039000  0.89609900  1
  N  859  1  0.29670800  0.77164100  0.38934200  1
  N  869  1  0.27242600  0.72070800  0.38955500  1
  N  873  1  0.29644600  0.74014300  0.43716000  1
  N  874  1  0.24491000  0.77221300  0.42570900  1
  N  879  1  0.29062400  0.65683000  0.40398800  1
  N  880  1  0.29833400  0.84006900  0.39624700  1
  N  883  1  0.02615700  0.94660200  0.13743500  1
  N  893  1  0.97508300  0.97143900  0.13773400  1
  N  897  1  0.99468200  0.94586500  0.18486800  1
  N  898  1  0.02638300  0.99834500  0.17385300  1
  N  903  1  0.91103600  0.95400300  0.15241500  1
  N  904  1  0.09445000  0.94461500  0.14497800  1
  N  907  1  0.47027200  0.04420900  0.63762800  1
  N  917  1  0.52132300  0.01942700  0.63786800  1
  N  921  1  0.50187300  0.04486500  0.68507600  1
  N  922  1  0.47009400  0.99249200  0.67406700  1
  N  927  1  0.58541100  0.03683900  0.65245600  1
  N  928  1  0.40196000  0.04608100  0.64511400  1
  N  931  1  0.30346800  0.22295500  0.60163600  1
  N  941  1  0.28812100  0.27431200  0.60987500  1
  N  945  1  0.28924100  0.26543500  0.55751800  1
  N  946  1  0.24331300  0.23315300  0.57408900  1
  N  951  1  0.30670800  0.33932700  0.59864800  1
  N  952  1  0.29160400  0.15572100  0.59414800  1
  N  955  1  0.19321300  0.76771100  0.10183100  1
  N  965  1  0.20844100  0.71630000  0.11002800  1
  N  969  1  0.20734100  0.72533800  0.05768400  1
  N  970  1  0.25337200  0.75745100  0.07430200  1
  N  975  1  0.18952300  0.65141000  0.09869700  1
  N  976  1  0.20508600  0.83492700  0.09427900  1
  N  979  1  0.47546700  0.93762200  0.35258200  1
  N  989  1  0.52677200  0.95345600  0.36124000  1
  N  993  1  0.51863000  0.95227000  0.30880400  1
  N  994  1  0.48593500  0.99796200  0.32529500  1
  N  999  1  0.59279200  0.93785300  0.35022900  1
  N  1000  1  0.40828200  0.94968600  0.34483800  1
  N  1003  1  0.02092000  0.05275000  0.85277400  1
  N  1013  1  0.96954900  0.03704600  0.86139100  1
  N  1017  1  0.97782900  0.03821700  0.80896600  1
  N  1018  1  0.01035000  0.99241600  0.82550100  1
  N  1023  1  0.90360600  0.05288100  0.85028900  1
  N  1024  1  0.08808400  0.04058500  0.84501300  1
  N  1027  1  0.79492500  0.77279100  0.10774500  1
  N  1037  1  0.77020100  0.72214200  0.10712000  1
  N  1041  1  0.79628100  0.74155900  0.06009800  1
  N  1042  1  0.74452200  0.77407000  0.07034200  1
  N  1047  1  0.78904400  0.65824000  0.09308700  1
  N  1048  1  0.79930200  0.84078700  0.09988100  1
  N  1051  1  0.70136900  0.21809000  0.60756900  1
  N  1061  1  0.72613500  0.26867100  0.60702300  1
  N  1065  1  0.70021200  0.24945800  0.55990900  1
  N  1066  1  0.75177900  0.21676100  0.57017200  1
  N  1071  1  0.70741900  0.33264100  0.59308200  1
  N  1072  1  0.69694300  0.15009000  0.59972200  1
  N  1075  1  0.69017300  0.76873200  0.39580100  1
  N  1085  1  0.70610900  0.71780000  0.38674300  1
  N  1089  1  0.70487500  0.72460000  0.43927500  1
  N  1090  1  0.75011800  0.75820600  0.42353100  1
  N  1095  1  0.69051600  0.65150700  0.39683800  1
  N  1096  1  0.70195700  0.83585700  0.40387500  1
  N  1099  1  0.80588800  0.22194600  0.89567800  1
  N  1109  1  0.78998500  0.27289900  0.88667400  1
  N  1113  1  0.79127300  0.26595900  0.93919400  1
  N  1114  1  0.74597000  0.23242700  0.92345000  1
  N  1119  1  0.80589600  0.33909100  0.89685300  1
  N  1120  1  0.79422400  0.15482000  0.90382100  1
  N  1123  1  0.52462000  0.44837000  0.64041600  1
  N  1133  1  0.47452200  0.47357700  0.64110800  1
  N  1137  1  0.49369600  0.44861400  0.68850400  1
  N  1138  1  0.52732300  0.49899700  0.67760600  1
  N  1143  1  0.41059500  0.45515300  0.65519500  1
  N  1144  1  0.59276900  0.44328800  0.64740500  1
  N  1147  1  0.97177300  0.54216800  0.14032500  1
  N  1157  1  0.02184200  0.51688400  0.14104000  1
  N  1161  1  0.00261900  0.54184800  0.18842300  1
  N  1162  1  0.96894900  0.49150400  0.17748400  1
  N  1167  1  0.08575900  0.53527000  0.15517700  1
  N  1168  1  0.90364100  0.54741900  0.14733200  1
  N  1171  1  0.97481500  0.43953300  0.84995600  1
  N  1181  1  0.02564500  0.45591200  0.85829800  1
  N  1185  1  0.01758800  0.45429300  0.80588100  1
  N  1186  1  0.98382200  0.49933300  0.82178600  1
  N  1191  1  0.09106200  0.43821200  0.84765100  1
  N  1192  1  0.90737600  0.44985800  0.84233400  1
  N  1195  1  0.52170300  0.55114000  0.34990500  1
  N  1205  1  0.47083300  0.53480100  0.35818600  1
  N  1209  1  0.47900000  0.53652400  0.30577900  1
  N  1210  1  0.51265700  0.49138700  0.32169000  1
  N  1215  1  0.40544100  0.55254700  0.34749400  1
  N  1216  1  0.58914200  0.54074000  0.34232300  1
  O  8  1  0.13618700  0.41703500  0.80837300  1
  O  15  1  0.20150200  0.39305200  0.93956100  1
  O  36  1  0.36029500  0.57382700  0.30820700  1
  O  43  1  0.29475400  0.59723000  0.43939500  1
  O  64  1  0.82170600  0.88268900  0.05941700  1
  O  71  1  0.85178500  0.95510100  0.18793900  1
  O  92  1  0.67460900  0.10798200  0.55930500  1
  O  99  1  0.64478600  0.03554100  0.68784200  1
  O  120  1  0.35111500  0.44986400  0.69028000  1
  O  127  1  0.32808300  0.38437500  0.55904300  1
  O  148  1  0.14528500  0.54069000  0.19023800  1
  O  155  1  0.16780500  0.60652200  0.05904500  1
  O  176  1  0.71319700  0.89621500  0.43796200  1
  O  183  1  0.63671000  0.92231300  0.31007400  1
  O  204  1  0.78325000  0.09449600  0.93802300  1
  O  211  1  0.85957900  0.06846300  0.81008100  1
  O  232  1  0.86086400  0.56965300  0.18710900  1
  O  239  1  0.78953400  0.59913900  0.05817800  1
  O  260  1  0.63548400  0.42097800  0.68718700  1
  O  267  1  0.70716300  0.39190300  0.55831400  1
  O  288  1  0.18137800  0.10898400  0.93592200  1
  O  295  1  0.14818000  0.02491900  0.81136600  1
  O  316  1  0.31500100  0.88176700  0.43601900  1
  O  323  1  0.34809400  0.96530900  0.31126700  1
  O  344  1  0.64986400  0.53054700  0.30840300  1
  O  351  1  0.67536600  0.60691400  0.43646500  1
  O  372  1  0.84658700  0.46001600  0.80843600  1
  O  379  1  0.82144800  0.38359700  0.93651800  1
  O  400  1  0.27667700  0.09538400  0.56066500  1
  O  407  1  0.36053900  0.06334800  0.68546700  1
  O  428  1  0.21993700  0.89517100  0.06065900  1
  O  435  1  0.13580800  0.92740400  0.18534300  1
  O  467  1  0.25013100  0.34231400  0.76119500  1
  O  468  1  0.24279700  0.47288800  0.73652700  1
  O  469  1  0.27459700  0.46286200  0.75235100  1
  O  470  1  0.27389300  0.36691700  0.77592200  1
  O  491  1  0.24576300  0.64825300  0.26134500  1
  O  492  1  0.25449300  0.51797200  0.23600100  1
  O  493  1  0.22271000  0.52751100  0.25201000  1
  O  494  1  0.22229100  0.62322700  0.27593900  1
  O  515  1  0.90212600  0.99314400  0.01094900  1
  O  516  1  0.77001600  0.00017200  0.99319300  1
  O  517  1  0.78461600  0.03124000  0.00781400  1
  O  518  1  0.88131500  0.01819500  0.02755600  1
  O  539  1  0.59421800  0.99778900  0.51075200  1
  O  540  1  0.72633700  0.99000800  0.49336300  1
  O  541  1  0.71144500  0.95894100  0.50782200  1
  O  542  1  0.61481300  0.97258400  0.52737600  1
  O  563  1  0.75005600  0.64954200  0.23511000  1
  O  564  1  0.74325300  0.51738000  0.25323700  1
  O  565  1  0.71195300  0.53158800  0.23868000  1
  O  566  1  0.72497500  0.62893900  0.21838600  1
  O  587  1  0.74651300  0.34115300  0.73508900  1
  O  588  1  0.75240200  0.47327000  0.75361600  1
  O  589  1  0.78368400  0.45930700  0.73890800  1
  O  590  1  0.77146800  0.36208400  0.71848400  1
  O  611  1  0.10169500  0.00004000  0.98734700  1
  O  612  1  0.23363600  0.98754800  0.00361700  1
  O  613  1  0.21714700  0.95693500  0.98958300  1
  O  614  1  0.12116600  0.97393000  0.97074400  1
  O  635  1  0.39478300  0.99038600  0.48742500  1
  O  636  1  0.26290700  0.00362900  0.50350000  1
  O  637  1  0.27965000  0.03421600  0.48960200  1
  O  638  1  0.37549800  0.01665500  0.47084000  1
  O  659  1  0.74775700  0.84923700  0.25834800  1
  O  660  1  0.74303200  0.98016700  0.23541000  1
  O  661  1  0.77454100  0.96797000  0.25071900  1
  O  662  1  0.77263800  0.87361000  0.27226000  1
  O  683  1  0.74937700  0.14158700  0.75792600  1
  O  684  1  0.75170700  0.01029900  0.73609800  1
  O  685  1  0.72019200  0.02330200  0.75103000  1
  O  686  1  0.72401500  0.11795200  0.77205400  1
  O  707  1  0.40211900  0.49723700  0.51072500  1
  O  708  1  0.27132600  0.49004800  0.48649200  1
  O  709  1  0.28151800  0.52220800  0.50185700  1
  O  710  1  0.37785500  0.52151900  0.52530000  1
  O  731  1  0.09441600  0.49244900  0.01122200  1
  O  732  1  0.22476500  0.50211900  0.98591600  1
  O  733  1  0.21553900  0.46997700  0.00163000  1
  O  734  1  0.11931200  0.46873400  0.02572600  1
  O  755  1  0.25226000  0.14240700  0.73751200  1
  O  756  1  0.24078500  0.01041000  0.75418800  1
  O  757  1  0.20990600  0.02668700  0.74033800  1
  O  758  1  0.22589600  0.12277900  0.72122900  1
  O  779  1  0.24376900  0.84811800  0.23748500  1
  O  780  1  0.25668400  0.98005600  0.25383600  1
  O  781  1  0.28754700  0.96346000  0.24017600  1
  O  782  1  0.27032100  0.86727100  0.22106200  1
  O  803  1  0.60215800  0.49635300  0.48795400  1
  O  804  1  0.73334000  0.49865200  0.51067900  1
  O  805  1  0.72081500  0.46705500  0.49562000  1
  O  806  1  0.62567500  0.47095500  0.47375000  1
  O  827  1  0.89425000  0.49530500  0.98744500  1
  O  828  1  0.76340200  0.49056500  0.01134600  1
  O  829  1  0.77492700  0.52221000  0.99591100  1
  O  830  1  0.87011200  0.52019200  0.97331400  1
  O  851  1  0.17574500  0.25207400  0.93944100  1
  O  852  1  0.27362700  0.21021400  0.92075100  1
  O  853  1  0.24700500  0.21069200  0.94226500  1
  O  854  1  0.21102500  0.25615800  0.95232700  1
  O  875  1  0.32051400  0.73821200  0.43965700  1
  O  876  1  0.22283600  0.78030200  0.42096400  1
  O  877  1  0.24947100  0.77979600  0.44246700  1
  O  878  1  0.28519300  0.73410200  0.45247700  1
  O  899  1  0.99251500  0.92175600  0.18701300  1
  O  900  1  0.03462000  0.02041400  0.16923900  1
  O  901  1  0.03367900  0.99366600  0.19066300  1
  O  902  1  0.98890800  0.95675600  0.20038100  1
  O  923  1  0.50405000  0.06896900  0.68725600  1
  O  924  1  0.46188400  0.97041200  0.66945000  1
  O  925  1  0.46278600  0.99716000  0.69087400  1
  O  926  1  0.50769800  0.03393000  0.70056100  1
  O  947  1  0.31133400  0.26666300  0.54996300  1
  O  948  1  0.22230100  0.22721600  0.58208300  1
  O  949  1  0.24169500  0.22706600  0.55671200  1
  O  950  1  0.27313000  0.27573600  0.54636000  1
  O  971  1  0.18523800  0.72423400  0.05013500  1
  O  972  1  0.27438600  0.76337800  0.08229600  1
  O  973  1  0.25499800  0.76352800  0.05692400  1
  O  974  1  0.22339900  0.71499800  0.04650400  1
  O  995  1  0.52063200  0.93024500  0.30123100  1
  O  996  1  0.47994100  0.01890100  0.33336900  1
  O  997  1  0.47999200  0.99974900  0.30789800  1
  O  998  1  0.52861300  0.96870100  0.29774300  1
  O  1019  1  0.97592300  0.06025100  0.80139600  1
  O  1020  1  0.01630100  0.97146800  0.83358000  1
  O  1021  1  0.01629400  0.99061200  0.80810800  1
  O  1022  1  0.96781600  0.02182600  0.79788800  1
  O  1043  1  0.82046400  0.73971000  0.05824800  1
  O  1044  1  0.72253000  0.78287300  0.07457400  1
  O  1045  1  0.74987200  0.78118300  0.05359900  1
  O  1046  1  0.78580300  0.73546100  0.04449900  1
  O  1067  1  0.67604100  0.25135400  0.55801000  1
  O  1068  1  0.77375600  0.20793000  0.57441200  1
  O  1069  1  0.74643300  0.20965500  0.55342500  1
  O  1070  1  0.71076400  0.25559300  0.54434500  1
  O  1091  1  0.68285000  0.72234000  0.44681100  1
  O  1092  1  0.77113000  0.76441300  0.41565300  1
  O  1093  1  0.75163900  0.76393000  0.44098100  1
  O  1094  1  0.72132900  0.71438300  0.45020000  1
  O  1115  1  0.81331900  0.26811800  0.94671000  1
  O  1116  1  0.72495000  0.22619300  0.91559200  1
  O  1117  1  0.74448100  0.22671500  0.94090200  1
  O  1118  1  0.77487500  0.27620400  0.95015000  1
  O  1139  1  0.49161000  0.42450700  0.69071200  1
  O  1140  1  0.53632800  0.52082800  0.67315900  1
  O  1141  1  0.53472100  0.49370800  0.69429200  1
  O  1142  1  0.48770300  0.45957700  0.70394400  1
  O  1163  1  0.00472300  0.56595500  0.19063400  1
  O  1164  1  0.95990000  0.46969600  0.17302400  1
  O  1165  1  0.96155700  0.49679300  0.19417200  1
  O  1166  1  0.00858000  0.53088100  0.20386900  1
  O  1187  1  0.01936500  0.43217300  0.79842800  1
  O  1188  1  0.97737300  0.52034500  0.82956000  1
  O  1189  1  0.97779900  0.50050700  0.80437800  1
  O  1190  1  0.02774700  0.47052300  0.79474600  1
  O  1211  1  0.47726000  0.55865900  0.29834600  1
  O  1212  1  0.51906300  0.47035600  0.32945500  1
  O  1213  1  0.51870900  0.49022700  0.30428600  1
  O  1214  1  0.46885000  0.52032600  0.29461500  1
