# generated using pymatgen
data_H36C53N8
_symmetry_space_group_name_H-M   'P 1'
_cell_length_a   61.15897382
_cell_length_b   61.15897382
_cell_length_c   61.15897382
_cell_angle_alpha   109.47122063
_cell_angle_beta   109.47122063
_cell_angle_gamma   109.47122063
_symmetry_Int_Tables_number   1
_chemical_formula_structural   H36C53N8
_chemical_formula_sum   'H432 C636 N96'
_cell_volume   176099.72540651
_cell_formula_units_Z   12
loop_
 _symmetry_equiv_pos_site_id
 _symmetry_equiv_pos_as_xyz
  1  'x, y, z'
loop_
 _atom_site_type_symbol
 _atom_site_label
 _atom_site_symmetry_multiplicity
 _atom_site_fract_x
 _atom_site_fract_y
 _atom_site_fract_z
 _atom_site_occupancy
  C  1  1  0.35751850  0.12412000  0.75520450  1
  C  2  1  0.34226250  0.09976500  0.75296950  1
  C  3  1  0.35281850  0.08328750  0.74702900  1
  C  4  1  0.37492500  0.09632700  0.74478300  1
  C  5  1  0.38862650  0.08272450  0.73832200  1
  C  6  1  0.37976450  0.05626000  0.73408450  1
  C  7  1  0.35802700  0.04436950  0.73776150  1
  C  8  1  0.34426200  0.05755250  0.74388250  1
  C  9  1  0.31968550  0.09433800  0.75613850  1
  C  10  1  0.31259900  0.11420350  0.76225750  1
  C  11  1  0.32812650  0.13961500  0.76590550  1
  C  12  1  0.35034950  0.14426300  0.76165950  1
  C  13  1  0.40696550  0.14578350  0.77259200  1
  C  14  1  0.42003100  0.16095650  0.76345250  1
  C  15  1  0.40341950  0.15058100  0.73648650  1
  C  16  1  0.37912950  0.12836100  0.72736850  1
  C  17  1  0.40843200  0.15984100  0.71957900  1
  C  18  1  0.38849550  0.14619850  0.69267200  1
  C  19  1  0.36386350  0.12319250  0.68235200  1
  C  20  1  0.35899800  0.11461900  0.70003800  1
  C  21  1  0.42058400  0.15299850  0.79992450  1
  C  22  1  0.44682750  0.17557950  0.81760000  1
  C  23  1  0.45948250  0.18987350  0.80724900  1
  C  24  1  0.44619350  0.18288700  0.78033950  1
  C  37  1  0.37963700  0.12365100  0.74998800  1
  C  42  1  0.15448750  0.40369250  0.27261100  1
  C  43  1  0.16977100  0.41670050  0.26352550  1
  C  44  1  0.15921550  0.40020450  0.23649000  1
  C  45  1  0.13708500  0.37586700  0.22741300  1
  C  46  1  0.12336900  0.35571500  0.20010200  1
  C  47  1  0.13224650  0.36033250  0.18250600  1
  C  48  1  0.15401750  0.38573100  0.19236850  1
  C  49  1  0.16779050  0.40560750  0.21932100  1
  C  50  1  0.19236450  0.44243400  0.28068350  1
  C  51  1  0.19944000  0.45564200  0.30763300  1
  C  52  1  0.18388500  0.44377900  0.31750300  1
  C  53  1  0.16164500  0.41731900  0.29991800  1
  C  54  1  0.10503100  0.37167350  0.24481150  1
  C  55  1  0.09193450  0.34947450  0.24691100  1
  C  56  1  0.10851950  0.33909400  0.25314850  1
  C  57  1  0.13282400  0.35424550  0.25523250  1
  C  58  1  0.10347750  0.31717600  0.25740250  1
  C  59  1  0.12339350  0.31018000  0.26370350  1
  C  60  1  0.14803750  0.32446600  0.26533650  1
  C  61  1  0.15293350  0.34701750  0.26162400  1
  C  62  1  0.09144750  0.38541500  0.23840950  1
  C  63  1  0.06519250  0.37686050  0.23471500  1
  C  64  1  0.05250850  0.35387000  0.23636450  1
  C  65  1  0.06576950  0.34022850  0.24267100  1
  C  78  1  0.13235550  0.37636800  0.25001650  1
  C  165  1  0.60229100  0.24478300  0.36889600  1
  C  166  1  0.58926200  0.24700500  0.34676900  1
  C  167  1  0.60575100  0.25293000  0.33622000  1
  C  168  1  0.63011000  0.25519250  0.35151250  1
  C  169  1  0.65027150  0.26165600  0.34436950  1
  C  170  1  0.64563600  0.26587750  0.32213150  1
  C  171  1  0.62022100  0.26220100  0.30656700  1
  C  172  1  0.60033900  0.25608300  0.31363500  1
  C  173  1  0.56351400  0.24383100  0.33817200  1
  C  174  1  0.55031900  0.23773050  0.35193450  1
  C  175  1  0.56219950  0.23407600  0.37369250  1
  C  176  1  0.58867250  0.23833100  0.38258750  1
  C  177  1  0.63435850  0.22740450  0.37318000  1
  C  178  1  0.65656700  0.23655250  0.39749250  1
  C  179  1  0.66692000  0.26352100  0.41407400  1
  C  180  1  0.65174150  0.27262900  0.40096450  1
  C  181  1  0.68884400  0.28044000  0.44023900  1
  C  182  1  0.69581200  0.30734850  0.45348950  1
  C  183  1  0.68150800  0.31766600  0.44078700  1
  C  184  1  0.65893550  0.29995900  0.41454150  1
  C  185  1  0.62064700  0.20006900  0.35306800  1
  C  186  1  0.62923950  0.18240900  0.35797450  1
  C  187  1  0.65223850  0.19276200  0.38262550  1
  C  188  1  0.66585100  0.21967300  0.40254200  1
  C  201  1  0.62962650  0.25000200  0.37364050  1
  C  206  1  0.88188050  0.72740050  0.13108900  1
  C  207  1  0.90624400  0.73649450  0.15319650  1
  C  208  1  0.92271650  0.76353200  0.16374050  1
  C  209  1  0.90967100  0.77260150  0.14846450  1
  C  210  1  0.92326950  0.79990750  0.15561000  1
  C  211  1  0.94974000  0.81750750  0.17783150  1
  C  212  1  0.96164250  0.80765400  0.19338150  1
  C  213  1  0.94846050  0.78070400  0.18631550  1
  C  214  1  0.91167800  0.71934150  0.16178050  1
  C  215  1  0.89181200  0.69238750  0.14803350  1
  C  216  1  0.86638850  0.68251250  0.12629400  1
  C  217  1  0.86173350  0.70009200  0.11740950  1
  C  218  1  0.86021600  0.75518800  0.12684800  1
  C  219  1  0.84502500  0.75308300  0.10254400  1
  C  220  1  0.85538200  0.74684550  0.08593450  1
  C  221  1  0.87761050  0.74477900  0.09901850  1
  C  222  1  0.84610200  0.74260200  0.05976800  1
  C  223  1  0.85973250  0.73631350  0.04648500  1
  C  224  1  0.88276000  0.73471250  0.05915950  1
  C  225  1  0.89133950  0.73839550  0.08541100  1
  C  226  1  0.85302500  0.76159400  0.14698500  1
  C  227  1  0.83045750  0.76527900  0.14210750  1
  C  228  1  0.81612550  0.76361500  0.11745950  1
  C  229  1  0.82309050  0.75730650  0.09751900  1
  C  242  1  0.88234350  0.74999250  0.12635300  1
  C  329  1  0.23340600  0.63109200  0.87588800  1
  C  330  1  0.24250200  0.65321400  0.90024200  1
  C  331  1  0.26953700  0.66375300  0.91672200  1
  C  332  1  0.27860550  0.64846800  0.90368550  1
  C  333  1  0.30591100  0.65561150  0.91728950  1
  C  334  1  0.32351200  0.67784150  0.94375450  1
  C  335  1  0.31366200  0.69340600  0.95564100  1
  C  336  1  0.28671250  0.68634100  0.94245650  1
  C  337  1  0.22535100  0.66180800  0.90566700  1
  C  338  1  0.19839850  0.64805850  0.88580000  1
  C  339  1  0.18851650  0.62629250  0.86038900  1
  C  340  1  0.20609550  0.61740300  0.85574550  1
  C  341  1  0.26119450  0.62682200  0.85423050  1
  C  342  1  0.25909300  0.60251300  0.83906100  1
  C  343  1  0.25285600  0.58592100  0.84943400  1
  C  344  1  0.25078100  0.59901900  0.87165100  1
  C  345  1  0.24861000  0.55975350  0.84017350  1
  C  346  1  0.24231250  0.54648700  0.85381350  1
  C  347  1  0.24068100  0.55916900  0.87681700  1
  C  348  1  0.24438750  0.58542800  0.88539050  1
  C  349  1  0.26759700  0.64694050  0.84701650  1
  C  350  1  0.27126300  0.64203650  0.82443750  1
  C  351  1  0.26962950  0.61739400  0.81014450  1
  C  352  1  0.26332850  0.59747200  0.81713250  1
  C  365  1  0.25599600  0.62634800  0.87636200  1
  C  370  1  0.75079000  0.86891400  0.59631000  1
  C  371  1  0.75306400  0.84681750  0.58329950  1
  C  372  1  0.75900400  0.83627800  0.59979500  1
  C  373  1  0.76121150  0.85153750  0.62413300  1
  C  374  1  0.76764850  0.84438000  0.64428550  1
  C  375  1  0.77190650  0.82216550  0.63966500  1
  C  376  1  0.76827600  0.80662700  0.61426600  1
  C  377  1  0.76217300  0.81370300  0.59438900  1
  C  378  1  0.74992400  0.83824400  0.55756700  1
  C  379  1  0.74379050  0.85198600  0.54435850  1
  C  380  1  0.74010250  0.87372100  0.55622450  1
  C  381  1  0.74432450  0.88259700  0.58268550  1
  C  382  1  0.73335550  0.87313350  0.62833000  1
  C  383  1  0.74245850  0.89743150  0.65053100  1
  C  384  1  0.76942500  0.91404950  0.66091050  1
  C  385  1  0.77857650  0.90098100  0.64575850  1
  C  386  1  0.78630100  0.94022000  0.68282900  1
  C  387  1  0.81321250  0.95351600  0.68982450  1
  C  388  1  0.82356850  0.94086300  0.67553650  1
  C  389  1  0.80591350  0.91459900  0.65298450  1
  C  390  1  0.70602900  0.85299100  0.61458800  1
  C  391  1  0.68832900  0.85785250  0.62314150  1
  C  392  1  0.69863650  0.88249150  0.64613400  1
  C  393  1  0.72554000  0.90243800  0.65977700  1
  C  406  1  0.75598350  0.87364200  0.62363450  1
  C  493  1  0.36024500  0.72738200  0.59902100  1
  C  494  1  0.34506650  0.73649300  0.58591550  1
  C  495  1  0.35542150  0.76346100  0.60249950  1
  C  496  1  0.37763050  0.77260700  0.62681050  1
  C  497  1  0.39134800  0.79994250  0.64692450  1
  C  498  1  0.38275900  0.81760550  0.64201850  1
  C  499  1  0.35976100  0.80725650  0.61736750  1
  C  500  1  0.34614600  0.78034550  0.59744850  1
  C  501  1  0.32314600  0.71957850  0.55974750  1
  C  502  1  0.31617800  0.69267100  0.54649200  1
  C  503  1  0.33048250  0.68235450  0.55919100  1
  C  504  1  0.35304700  0.70005200  0.58544100  1
  C  505  1  0.40969400  0.75522250  0.63109250  1
  C  506  1  0.42271950  0.75299500  0.65321850  1
  C  507  1  0.40622800  0.74706950  0.66376450  1
  C  508  1  0.38187150  0.74481150  0.64847200  1
  C  509  1  0.41163200  0.74390650  0.68634350  1
  C  510  1  0.39174650  0.73778800  0.69340650  1
  C  511  1  0.36633000  0.73410200  0.67783400  1
  C  512  1  0.36170600  0.73834650  0.65561150  1
  C  513  1  0.42331550  0.76167350  0.61740300  1
  C  514  1  0.44978400  0.76591750  0.62629450  1
  C  515  1  0.46166650  0.76227500  0.64806150  1
  C  516  1  0.44846350  0.75616350  0.66181400  1
  C  529  1  0.38235900  0.75000700  0.62634700  1
  C  534  1  0.15176550  0.24480500  0.87316450  1
  C  535  1  0.16695450  0.24690850  0.89746800  1
  C  536  1  0.15659000  0.25313500  0.91407300  1
  C  537  1  0.13436650  0.25520900  0.90099150  1
  C  538  1  0.12063800  0.26159650  0.91459850  1
  C  539  1  0.12922900  0.26529800  0.94085800  1
  C  540  1  0.15224400  0.26367700  0.95352500  1
  C  541  1  0.16587500  0.25738800  0.94024300  1
  C  542  1  0.18888550  0.24268050  0.90249100  1
  C  543  1  0.19585500  0.23637950  0.88255350  1
  C  544  1  0.18153950  0.23474050  0.85791500  1
  C  545  1  0.15896300  0.23840950  0.85303250  1
  C  546  1  0.10231000  0.22739300  0.85154300  1
  C  547  1  0.08926750  0.23646850  0.83627100  1
  C  548  1  0.10573850  0.26350800  0.84682550  1
  C  549  1  0.13010250  0.27259550  0.86892900  1
  C  550  1  0.10031350  0.28066350  0.83824000  1
  C  551  1  0.12018400  0.30761550  0.85198950  1
  C  552  1  0.14560450  0.31748600  0.87373150  1
  C  553  1  0.15025000  0.29990400  0.88261700  1
  C  554  1  0.08870800  0.20008300  0.84438800  1
  C  555  1  0.06223700  0.18248900  0.82216900  1
  C  556  1  0.05033550  0.19235050  0.80662800  1
  C  557  1  0.06351950  0.21930400  0.81370250  1
  C  570  1  0.12963650  0.24999850  0.87365800  1
  C  657  1  0.60503500  0.85422850  0.22740550  1
  C  658  1  0.59197400  0.83906400  0.23655300  1
  C  659  1  0.60858450  0.84945200  0.26352250  1
  C  660  1  0.63287650  0.87166300  0.27263050  1
  C  661  1  0.65301050  0.88541450  0.29996100  1
  C  662  1  0.64814850  0.87686100  0.31766050  1
  C  663  1  0.62352550  0.85384350  0.30734200  1
  C  664  1  0.60358250  0.84019450  0.28043500  1
  C  665  1  0.56581100  0.81713350  0.21967150  1
  C  666  1  0.55251500  0.81014100  0.19276000  1
  C  667  1  0.56516400  0.82443900  0.18240800  1
  C  668  1  0.59141650  0.84700800  0.20007150  1
  C  669  1  0.63707350  0.90368500  0.25520250  1
  C  670  1  0.65917450  0.91672100  0.25294750  1
  C  671  1  0.66973850  0.90024650  0.24701900  1
  C  672  1  0.65448250  0.87589400  0.24478950  1
  C  673  1  0.69230850  0.90566950  0.24384100  1
  C  674  1  0.69939800  0.88580400  0.23772700  1
  C  675  1  0.68387400  0.86039600  0.23408900  1
  C  676  1  0.66164900  0.85574950  0.23833250  1
  C  677  1  0.62337300  0.91729000  0.26166300  1
  C  678  1  0.63223600  0.94375500  0.26590100  1
  C  679  1  0.65397300  0.95564300  0.26222200  1
  C  680  1  0.66773400  0.94245600  0.25609700  1
  C  693  1  0.63236500  0.87636650  0.25000650  1
  C  698  1  0.87913500  0.64575050  0.74477450  1
  C  699  1  0.90343400  0.66090800  0.74685200  1
  C  700  1  0.92002850  0.65053700  0.75308950  1
  C  701  1  0.90694400  0.62833900  0.75519800  1
  C  702  1  0.92054400  0.61461250  0.76160750  1
  C  703  1  0.94679750  0.62317650  0.76529900  1
  C  704  1  0.95946850  0.64616800  0.76364450  1
  C  705  1  0.94619250  0.65979650  0.75733100  1
  C  706  1  0.90846350  0.68282350  0.74259700  1
  C  707  1  0.88853900  0.68980800  0.73629600  1
  C  708  1  0.86390300  0.67552150  0.73467550  1
  C  709  1  0.85901700  0.65296550  0.73838250  1
  C  710  1  0.85749300  0.59630350  0.72739850  1
  C  711  1  0.84221800  0.58328600  0.73648600  1
  C  712  1  0.85277600  0.59977850  0.76352250  1
  C  713  1  0.87489200  0.62412550  0.77259650  1
  C  714  1  0.84420000  0.59437250  0.78069050  1
  C  715  1  0.85796600  0.61425350  0.80764150  1
  C  716  1  0.87972850  0.63965500  0.81750250  1
  C  717  1  0.88859750  0.64428300  0.79990450  1
  C  718  1  0.85033300  0.58268000  0.70009000  1
  C  719  1  0.82809950  0.55621600  0.68250550  1
  C  720  1  0.81255450  0.54434350  0.69237800  1
  C  721  1  0.81963250  0.55754750  0.71933000  1
  C  734  1  0.87961700  0.62363050  0.74999150  1
  C  821  1  0.23336900  0.09900150  0.35421750  1
  C  822  1  0.24251300  0.08591900  0.33906500  1
  C  823  1  0.26948100  0.10252450  0.34944150  1
  C  824  1  0.27859550  0.12682950  0.37164100  1
  C  825  1  0.30592350  0.14696400  0.38537250  1
  C  826  1  0.32361200  0.14208750  0.37680950  1
  C  827  1  0.31329450  0.11744150  0.35382300  1
  C  828  1  0.28638950  0.09749950  0.34019100  1
  C  829  1  0.22562650  0.05974950  0.31714500  1
  C  830  1  0.19871300  0.04647050  0.31014950  1
  C  831  1  0.18835950  0.05914450  0.32442400  1
  C  832  1  0.20603200  0.08539700  0.34699200  1
  C  833  1  0.26116850  0.13106600  0.40366750  1
  C  834  1  0.25891000  0.15317050  0.41668350  1
  C  835  1  0.25298450  0.16371850  0.40019200  1
  C  836  1  0.25075750  0.14844750  0.37584700  1
  C  837  1  0.24979900  0.18628350  0.40559050  1
  C  838  1  0.24369050  0.19335600  0.38571150  1
  C  839  1  0.24003500  0.17780300  0.36030400  1
  C  840  1  0.24430150  0.15559350  0.35568800  1
  C  841  1  0.26762900  0.11737950  0.41729050  1
  C  842  1  0.27185000  0.12625550  0.44375150  1
  C  843  1  0.26817600  0.14800100  0.45562200  1
  C  844  1  0.26205450  0.16174900  0.44241750  1
  C  857  1  0.25597300  0.12633450  0.37634150  1
  C  862  1  0.75082800  0.37319550  0.14579750  1
  C  863  1  0.75293150  0.39750650  0.16096700  1
  C  864  1  0.75915850  0.41409250  0.15058500  1
  C  865  1  0.76123250  0.40099200  0.12836750  1
  C  866  1  0.76761900  0.41457750  0.11462250  1
  C  867  1  0.77132150  0.44083500  0.12319050  1
  C  868  1  0.76970150  0.45352450  0.14620000  1
  C  869  1  0.76341150  0.44026250  0.15984600  1
  C  870  1  0.74870550  0.40255350  0.18290000  1
  C  871  1  0.74240750  0.38263250  0.18989200  1
  C  872  1  0.74077000  0.35798900  0.17559700  1
  C  873  1  0.74443550  0.35308150  0.15301800  1
  C  874  1  0.73340600  0.35153900  0.09633900  1
  C  875  1  0.74247200  0.33625000  0.08330400  1
  C  876  1  0.76951300  0.34680200  0.09977400  1
  C  877  1  0.77860850  0.36892050  0.12413000  1
  C  878  1  0.78666000  0.33820100  0.09435200  1
  C  879  1  0.81361450  0.35195250  0.11421800  1
  C  880  1  0.82349450  0.37371050  0.13963100  1
  C  881  1  0.80592000  0.38261000  0.14427300  1
  C  882  1  0.70609850  0.34439000  0.08273750  1
  C  883  1  0.68849850  0.32216150  0.05627300  1
  C  884  1  0.69835200  0.30660500  0.04438000  1
  C  885  1  0.72530050  0.31367200  0.05756250  1
  C  898  1  0.75601850  0.37366300  0.12365950  1
  C  985  1  0.30279050  0.11585800  0.49832350  1
  C  986  1  0.32887900  0.12789300  0.52002900  1
  C  987  1  0.33393000  0.12194300  0.54108100  1
  C  988  1  0.31194100  0.10293050  0.54021750  1
  C  989  1  0.28588650  0.09039850  0.51832300  1
  C  990  1  0.28136300  0.09679450  0.49772550  1
  C  993  1  0.31548400  0.09718050  0.56153150  1
  C  994  1  0.31270700  0.11245350  0.58250950  1
  C  995  1  0.32161700  0.11226600  0.60680400  1
  C  996  1  0.33356650  0.09673150  0.61093900  1
  C  997  1  0.33503000  0.08044650  0.58933050  1
  C  998  1  0.32635000  0.08044350  0.56473450  1
  C  1009  1  0.34918500  0.10190150  0.63662350  1
  C  1010  1  0.29858200  0.12668150  0.48158150  1
  C  1013  1  0.20916850  0.20144550  0.31894200  1
  C  1014  1  0.18307300  0.19704750  0.30486650  1
  C  1015  1  0.17802350  0.21306750  0.29389100  1
  C  1016  1  0.20001950  0.23424200  0.29693150  1
  C  1017  1  0.22608150  0.23843650  0.31049600  1
  C  1018  1  0.23060400  0.22236100  0.32141400  1
  C  1021  1  0.19647300  0.25200550  0.28762850  1
  C  1022  1  0.19922950  0.27574700  0.30569050  1
  C  1023  1  0.19020700  0.29107050  0.29658450  1
  C  1024  1  0.17825150  0.28325450  0.26910100  1
  C  1025  1  0.17682050  0.26022050  0.25134700  1
  C  1026  1  0.18557350  0.24434300  0.26002450  1
  C  1037  1  0.16264900  0.29336250  0.25871550  1
  C  1038  1  0.21332700  0.18888450  0.33395350  1
  C  1041  1  0.88847850  0.38413300  0.18096750  1
  C  1042  1  0.89816100  0.37211450  0.19503650  1
  C  1043  1  0.92516400  0.37806700  0.20603300  1
  C  1044  1  0.94330200  0.39706450  0.20303250  1
  C  1045  1  0.93392900  0.40958100  0.18949600  1
  C  1046  1  0.90693550  0.40318300  0.17858150  1
  C  1049  1  0.97036650  0.40281850  0.21232200  1
  C  1050  1  0.97606100  0.38751000  0.19428600  1
  C  1051  1  0.00055200  0.38771750  0.20339050  1
  C  1052  1  0.02024500  0.40330900  0.23086900  1
  C  1053  1  0.01492750  0.41962250  0.24859900  1
  C  1054  1  0.99032250  0.41960450  0.23991500  1
  C  1065  1  0.04080400  0.39819500  0.24134500  1
  C  1066  1  0.86091350  0.37330900  0.16594550  1
  C  1069  1  0.62349600  0.29852850  0.00176150  1
  C  1070  1  0.61382400  0.30294950  0.98008150  1
  C  1071  1  0.58682800  0.28694050  0.95901150  1
  C  1072  1  0.56869250  0.26575000  0.95981450  1
  C  1073  1  0.57805900  0.26153200  0.98166600  1
  C  1074  1  0.60505200  0.27759850  0.00226550  1
  C  1077  1  0.54162750  0.24799200  0.93850050  1
  C  1078  1  0.53595250  0.22426250  0.91750100  1
  C  1079  1  0.51152300  0.20894500  0.89315700  1
  C  1080  1  0.49184900  0.21675350  0.88903150  1
  C  1081  1  0.49712600  0.23977500  0.91064700  1
  C  1082  1  0.52168000  0.25564550  0.93527650  1
  C  1093  1  0.47136300  0.20665300  0.86332300  1
  C  1094  1  0.65106750  0.31106900  0.01847150  1
  C  1097  1  0.80445600  0.50164200  0.61753200  1
  C  1098  1  0.80883950  0.47993700  0.60785350  1
  C  1099  1  0.79283500  0.45888700  0.58085100  1
  C  1100  1  0.77170100  0.45974650  0.56270950  1
  C  1101  1  0.76753950  0.48163900  0.57207650  1
  C  1102  1  0.78361950  0.50223700  0.59907050  1
  C  1105  1  0.75393050  0.43843700  0.53564450  1
  C  1106  1  0.73020100  0.41742800  0.52994600  1
  C  1107  1  0.71481800  0.39314750  0.50545250  1
  C  1108  1  0.72260550  0.38905500  0.48576150  1
  C  1109  1  0.74565200  0.41069200  0.49108200  1
  C  1110  1  0.76156800  0.43527550  0.51569050  1
  C  1121  1  0.71252450  0.36338600  0.46519750  1
  C  1122  1  0.81699900  0.51839100  0.64509600  1
  C  1125  1  0.89021550  0.68102800  0.88249650  1
  C  1126  1  0.87818250  0.69508650  0.89217200  1
  C  1127  1  0.88411600  0.70606950  0.91916950  1
  C  1128  1  0.90309200  0.70305050  0.93730750  1
  C  1129  1  0.91560300  0.68950350  0.92794050  1
  C  1130  1  0.90920000  0.67857850  0.90094550  1
  C  1133  1  0.90886000  0.71236450  0.96437850  1
  C  1134  1  0.89356300  0.69431050  0.97007050  1
  C  1135  1  0.89365750  0.70342600  0.99450550  1
  C  1136  1  0.90918900  0.73091250  0.01416650  1
  C  1137  1  0.92550450  0.74865850  0.00887300  1
  C  1138  1  0.92556650  0.73997050  0.98431200  1
  C  1149  1  0.90398350  0.74130700  0.03466650  1
  C  1150  1  0.87935600  0.66600950  0.85492250  1
  C  1153  1  0.70751100  0.81905250  0.20316750  1
  C  1154  1  0.70313050  0.80499100  0.17708150  1
  C  1155  1  0.71913700  0.79399350  0.17203950  1
  C  1156  1  0.74026650  0.79698200  0.19403450  1
  C  1157  1  0.74442550  0.81051350  0.22008700  1
  C  1158  1  0.72834700  0.82143050  0.22460350  1
  C  1161  1  0.75803850  0.78768800  0.19049850  1
  C  1162  1  0.78178700  0.80573200  0.19325800  1
  C  1163  1  0.79717100  0.79663000  0.18435200  1
  C  1164  1  0.78936300  0.76914650  0.17242450  1
  C  1165  1  0.76629950  0.75140700  0.17097750  1
  C  1166  1  0.75038350  0.76009000  0.17965450  1
  C  1177  1  0.79942550  0.75868700  0.15680750  1
  C  1178  1  0.69496950  0.83407600  0.20736450  1
  C  1181  1  0.62175950  0.99827350  0.29678600  1
  C  1182  1  0.63378900  0.01997100  0.32288200  1
  C  1183  1  0.62785900  0.04103800  0.32794100  1
  C  1184  1  0.60889300  0.04021450  0.30595050  1
  C  1185  1  0.59638700  0.01834650  0.27988750  1
  C  1186  1  0.60278450  0.99775100  0.27535550  1
  C  1189  1  0.60313150  0.06152200  0.30950550  1
  C  1190  1  0.61843800  0.08251800  0.30676000  1
  C  1191  1  0.61834650  0.10685900  0.31578750  1
  C  1192  1  0.60281000  0.11098400  0.32773700  1
  C  1193  1  0.58648900  0.08937150  0.32915850  1
  C  1194  1  0.58642150  0.06474500  0.32040050  1
  C  1205  1  0.60801350  0.13668800  0.34333950  1
  C  1206  1  0.63261200  0.98155500  0.29261400  1
  C  1209  1  0.18694250  0.38246400  0.88414450  1
  C  1210  1  0.20101350  0.39214150  0.87212600  1
  C  1211  1  0.21201200  0.41914350  0.87807650  1
  C  1212  1  0.20901850  0.43728700  0.89707450  1
  C  1213  1  0.19547900  0.42791900  0.90959200  1
  C  1214  1  0.18456000  0.40092450  0.90319450  1
  C  1217  1  0.21830650  0.46435100  0.90282250  1
  C  1218  1  0.20025350  0.47004850  0.88754100  1
  C  1219  1  0.20934850  0.49452900  0.88772750  1
  C  1220  1  0.23683100  0.51420400  0.90326800  1
  C  1221  1  0.25458100  0.50888750  0.91955950  1
  C  1222  1  0.24590650  0.48429500  0.91956550  1
  C  1233  1  0.24727150  0.53471250  0.89808800  1
  C  1234  1  0.17191200  0.35489950  0.87332050  1
  C  1237  1  0.00772650  0.11748450  0.79853500  1
  C  1238  1  0.98603550  0.10781250  0.80294200  1
  C  1239  1  0.96496600  0.08081650  0.78692850  1
  C  1240  1  0.96578200  0.06267950  0.76575150  1
  C  1241  1  0.98764250  0.07204450  0.76154700  1
  C  1242  1  0.00824200  0.09903800  0.77761700  1
  C  1245  1  0.94446900  0.03561350  0.74799150  1
  C  1246  1  0.92348050  0.02993450  0.72425000  1
  C  1247  1  0.89913450  0.00550650  0.70892900  1
  C  1248  1  0.89499550  0.98583900  0.71674550  1
  C  1249  1  0.91660100  0.99111850  0.73977850  1
  C  1250  1  0.94123250  0.01567350  0.75565400  1
  C  1261  1  0.86928500  0.96534650  0.70663850  1
  C  1262  1  0.02443950  0.14505650  0.81108000  1
  C  1265  1  0.50434700  0.79684100  0.61587800  1
  C  1266  1  0.52605500  0.82292700  0.62790500  1
  C  1267  1  0.54710400  0.82796850  0.62195050  1
  C  1268  1  0.54623750  0.80597350  0.60294400  1
  C  1269  1  0.52434150  0.77992100  0.59041850  1
  C  1270  1  0.50374600  0.77540650  0.59681850  1
  C  1273  1  0.56754650  0.80950750  0.59718700  1
  C  1274  1  0.58854650  0.80677200  0.61248850  1
  C  1275  1  0.61282850  0.81566750  0.61227900  1
  C  1276  1  0.61693250  0.82756350  0.59669500  1
  C  1277  1  0.59530500  0.82898700  0.58038800  1
  C  1278  1  0.57071800  0.82032200  0.58040700  1
  C  1289  1  0.64260600  0.84315050  0.60180850  1
  C  1290  1  0.48760550  0.79264250  0.62670200  1
  C  1293  1  0.32497100  0.70322950  0.70147550  1
  C  1294  1  0.31088650  0.67713150  0.69706700  1
  C  1295  1  0.29990450  0.67207750  0.71308100  1
  C  1296  1  0.30295200  0.69407250  0.73426350  1
  C  1297  1  0.31652850  0.72013850  0.73847000  1
  C  1298  1  0.32745050  0.72466550  0.72239900  1
  C  1301  1  0.29364650  0.69052250  0.75202400  1
  C  1302  1  0.31170200  0.69325950  0.77575650  1
  C  1303  1  0.30258950  0.68423350  0.79107500  1
  C  1304  1  0.27510650  0.67229350  0.78326200  1
  C  1305  1  0.25736100  0.67088200  0.76023800  1
  C  1306  1  0.26604400  0.67963850  0.74436450  1
  C  1317  1  0.26472100  0.65668650  0.79336450  1
  C  1318  1  0.33999000  0.70739300  0.68892300  1
  C  1321  1  0.70916950  0.88411450  0.50164600  1
  C  1322  1  0.68308200  0.87208600  0.47994200  1
  C  1323  1  0.67803450  0.87803650  0.45889000  1
  C  1324  1  0.70002650  0.89703850  0.45974900  1
  C  1325  1  0.72608150  0.90956500  0.48164150  1
  C  1326  1  0.73060150  0.90317100  0.50224050  1
  C  1329  1  0.69648700  0.90279050  0.43843650  1
  C  1330  1  0.69921450  0.88748350  0.41743400  1
  C  1331  1  0.69031850  0.88769400  0.39315150  1
  C  1332  1  0.67843150  0.90328450  0.38905200  1
  C  1333  1  0.67701400  0.91959700  0.41068300  1
  C  1334  1  0.68568100  0.91957750  0.43526950  1
  C  1345  1  0.66284300  0.89817350  0.36338050  1
  C  1346  1  0.71337800  0.87329900  0.51839400  1
  C  1349  1  0.80276700  0.79852450  0.68103550  1
  C  1350  1  0.82886350  0.80292950  0.69512300  1
  C  1351  1  0.83391300  0.78691300  0.70610300  1
  C  1352  1  0.81191250  0.76573000  0.70304950  1
  C  1353  1  0.78585000  0.76152850  0.68947250  1
  C  1354  1  0.78132800  0.77760200  0.67855200  1
  C  1357  1  0.81545750  0.74796700  0.71235250  1
  C  1358  1  0.81271750  0.72423250  0.69429500  1
  C  1359  1  0.82173800  0.70890950  0.70340350  1
  C  1360  1  0.83367600  0.71671800  0.73088600  1
  C  1361  1  0.83508900  0.73974250  0.74863350  1
  C  1362  1  0.82633900  0.75562000  0.73995300  1
  C  1373  1  0.84927200  0.70660650  0.74127450  1
  C  1374  1  0.79861300  0.81108500  0.66602200  1
  C  1377  1  0.12353250  0.61586700  0.81904750  1
  C  1378  1  0.11384800  0.62786400  0.80495200  1
  C  1379  1  0.08684550  0.62191600  0.79395750  1
  C  1380  1  0.06871250  0.60294450  0.79698400  1
  C  1381  1  0.07808800  0.59044900  0.81054800  1
  C  1382  1  0.10508000  0.59684150  0.82146050  1
  C  1385  1  0.04165250  0.59720400  0.78770350  1
  C  1386  1  0.03596700  0.61250600  0.80575400  1
  C  1387  1  0.01148550  0.61231900  0.79666350  1
  C  1388  1  0.99179800  0.59675800  0.76918600  1
  C  1389  1  0.99710050  0.58044600  0.75143750  1
  C  1390  1  0.02169400  0.58044050  0.76010850  1
  C  1401  1  0.97128500  0.60193550  0.75875150  1
  C  1402  1  0.15109750  0.62669150  0.83407100  1
  C  1405  1  0.38851100  0.70148250  0.99827150  1
  C  1406  1  0.39818200  0.69708700  0.01997200  1
  C  1407  1  0.42517800  0.71309850  0.04103950  1
  C  1408  1  0.44331950  0.73426450  0.04021400  1
  C  1409  1  0.43395600  0.73845750  0.01834450  1
  C  1410  1  0.40696150  0.72239000  0.99774750  1
  C  1413  1  0.47038750  0.75201800  0.06152050  1
  C  1414  1  0.47607650  0.77575950  0.08251400  1
  C  1415  1  0.50051050  0.79107500  0.10685550  1
  C  1416  1  0.52017150  0.78325000  0.11098250  1
  C  1417  1  0.51488200  0.76021750  0.08937150  1
  C  1418  1  0.49032150  0.74434700  0.06474450  1
  C  1429  1  0.54067200  0.79335300  0.13668700  1
  C  1430  1  0.36093900  0.68893350  0.98155450  1
  C  1433  1  0.20753150  0.49836350  0.38247300  1
  C  1434  1  0.20315400  0.52007300  0.39214400  1
  C  1435  1  0.21915700  0.54112450  0.41914650  1
  C  1436  1  0.24028200  0.54026050  0.43729350  1
  C  1437  1  0.24443800  0.51836300  0.42793200  1
  C  1438  1  0.22836100  0.49776400  0.40093900  1
  C  1441  1  0.25805400  0.56157300  0.46436000  1
  C  1442  1  0.28179000  0.58257150  0.47006050  1
  C  1443  1  0.29717350  0.60685550  0.49455200  1
  C  1444  1  0.28937700  0.61095950  0.51423550  1
  C  1445  1  0.26632250  0.58933200  0.50891150  1
  C  1446  1  0.25040400  0.56474450  0.48430650  1
  C  1457  1  0.29945300  0.63663050  0.53479050  1
  C  1458  1  0.19499250  0.48161300  0.35490950  1
  C  1461  1  0.12173650  0.31895850  0.11749600  1
  C  1462  1  0.13375300  0.30488000  0.10781600  1
  C  1463  1  0.12782000  0.29389800  0.08081900  1
  C  1464  1  0.10886200  0.29693800  0.06268500  1
  C  1465  1  0.09636900  0.31050750  0.07205950  1
  C  1466  1  0.10277100  0.32143050  0.09905450  1
  C  1469  1  0.10309850  0.28762950  0.03561700  1
  C  1470  1  0.11840650  0.30568450  0.02993300  1
  C  1471  1  0.11831600  0.29657050  0.00550050  1
  C  1472  1  0.10278200  0.26908600  0.98583500  1
  C  1473  1  0.08645650  0.25134000  0.99111950  1
  C  1474  1  0.08638700  0.26002500  0.01567900  1
  C  1485  1  0.10799350  0.25869250  0.96534000  1
  C  1486  1  0.13259500  0.33397450  0.14506950  1
  C  1489  1  0.30448400  0.18095150  0.79683050  1
  C  1490  1  0.30887800  0.19502350  0.82291950  1
  C  1491  1  0.29287250  0.20602000  0.82796850  1
  C  1492  1  0.27173050  0.20301850  0.80597500  1
  C  1493  1  0.26755650  0.18947550  0.77991900  1
  C  1494  1  0.28363550  0.17856150  0.77539700  1
  C  1497  1  0.25395500  0.21230750  0.80951550  1
  C  1498  1  0.23021550  0.19426350  0.80676700  1
  C  1499  1  0.21483150  0.20336250  0.81567400  1
  C  1500  1  0.22263200  0.23084300  0.82759500  1
  C  1501  1  0.24568950  0.24858550  0.82903300  1
  C  1502  1  0.26160450  0.23990400  0.82035350  1
  C  1513  1  0.21256950  0.24129800  0.84321350  1
  C  1514  1  0.31702300  0.16592600  0.79262700  1
  C  1517  1  0.39024700  0.00174400  0.70320500  1
  C  1518  1  0.37821750  0.98004500  0.67710750  1
  C  1519  1  0.38414600  0.95897700  0.67205000  1
  C  1520  1  0.40311250  0.95980200  0.69404250  1
  C  1521  1  0.41561850  0.98167100  0.72010550  1
  C  1522  1  0.40922100  0.00226700  0.72463500  1
  C  1525  1  0.40887350  0.93849450  0.69048900  1
  C  1526  1  0.39356750  0.91750000  0.69323550  1
  C  1527  1  0.39366000  0.89315900  0.68420900  1
  C  1528  1  0.40919500  0.88903200  0.67225900  1
  C  1529  1  0.42551650  0.91064500  0.67083750  1
  C  1530  1  0.42558400  0.93527100  0.67959400  1
  C  1541  1  0.40399150  0.86332850  0.65665700  1
  C  1542  1  0.37939400  0.01846200  0.70737500  1
  C  1545  1  0.82506450  0.61753900  0.11589850  1
  C  1546  1  0.81102400  0.60786500  0.12794200  1
  C  1547  1  0.80002550  0.58086200  0.12198850  1
  C  1548  1  0.80299100  0.56271400  0.10296300  1
  C  1549  1  0.81649850  0.57207700  0.09042050  1
  C  1550  1  0.82741650  0.59907200  0.09682050  1
  C  1553  1  0.79369500  0.53564600  0.09720400  1
  C  1554  1  0.81173750  0.52993750  0.11248100  1
  C  1555  1  0.80263450  0.50545100  0.11228250  1
  C  1556  1  0.77515100  0.48577750  0.09673150  1
  C  1557  1  0.75741050  0.49110750  0.08044600  1
  C  1558  1  0.76609400  0.51570750  0.08045550  1
  C  1569  1  0.76468550  0.46524350  0.10187400  1
  C  1570  1  0.84008950  0.64510350  0.12671700  1
  C  1573  1  0.00425200  0.88248000  0.20143100  1
  C  1574  1  0.02598650  0.89215300  0.19708250  1
  C  1575  1  0.04705150  0.91915050  0.21310600  1
  C  1576  1  0.04618600  0.93729250  0.23423350  1
  C  1577  1  0.02428200  0.92792800  0.23838000  1
  C  1578  1  0.00369100  0.90093250  0.22230250  1
  C  1581  1  0.06748000  0.96436650  0.25199050  1
  C  1582  1  0.08846300  0.97006900  0.27574900  1
  C  1583  1  0.11280150  0.99450500  0.29106750  1
  C  1584  1  0.11693550  0.01415650  0.28322900  1
  C  1585  1  0.09533450  0.00885350  0.26017900  1
  C  1586  1  0.07071150  0.98429000  0.24430450  1
  C  1597  1  0.14264400  0.03465800  0.29333800  1
  C  1598  1  0.98752250  0.85490300  0.18885150  1
  C  1601  1  0.50764150  0.20316100  0.38411950  1
  C  1602  1  0.48594850  0.17707150  0.37210800  1
  C  1603  1  0.46489650  0.17202550  0.37805900  1
  C  1604  1  0.46574800  0.19402150  0.39704750  1
  C  1605  1  0.48762950  0.22007900  0.40955750  1
  C  1606  1  0.50822750  0.22459750  0.40316100  1
  C  1609  1  0.44443250  0.19048200  0.40279650  1
  C  1610  1  0.42344600  0.19323900  0.38750600  1
  C  1611  1  0.39915350  0.18433200  0.38769650  1
  C  1612  1  0.39502850  0.17240400  0.40325050  1
  C  1613  1  0.41664400  0.17095950  0.41955050  1
  C  1614  1  0.44124000  0.17963850  0.41955050  1
  C  1625  1  0.36934400  0.15678350  0.39807950  1
  C  1626  1  0.52438350  0.20736150  0.37329600  1
  C  1629  1  0.68700250  0.29676750  0.29850300  1
  C  1630  1  0.70107800  0.32286800  0.30291200  1
  C  1631  1  0.71207300  0.32793150  0.28690950  1
  C  1632  1  0.70904750  0.30594400  0.26573950  1
  C  1633  1  0.69548200  0.27987700  0.26153400  1
  C  1634  1  0.68454800  0.27534100  0.27759400  1
  C  1637  1  0.71836600  0.30950250  0.24798950  1
  C  1638  1  0.70032150  0.30677200  0.22425550  1
  C  1639  1  0.70944600  0.31579900  0.20894500  1
  C  1640  1  0.73693150  0.32773400  0.21676550  1
  C  1641  1  0.75466550  0.32914000  0.23979250  1
  C  1642  1  0.74596950  0.32038250  0.25565800  1
  C  1653  1  0.74734000  0.34333750  0.20666850  1
  C  1654  1  0.67196700  0.29259000  0.31103600  1
  H  25  1  0.47870800  0.20568450  0.81939150  1
  H  26  1  0.45567000  0.19358150  0.77334850  1
  H  27  1  0.42610900  0.17631150  0.72655250  1
  H  28  1  0.39214000  0.15326750  0.68051250  1
  H  29  1  0.34111100  0.09842800  0.69308900  1
  H  30  1  0.41136300  0.14206550  0.80688950  1
  H  31  1  0.40461550  0.09187250  0.73631500  1
  H  32  1  0.35175700  0.02564200  0.73561600  1
  H  33  1  0.32838950  0.04842450  0.74605100  1
  H  34  1  0.36148550  0.16226050  0.76365900  1
  H  35  1  0.30841500  0.07629550  0.75398650  1
  H  36  1  0.29602250  0.11006500  0.76441550  1
  H  66  1  0.03328500  0.34681500  0.23295200  1
  H  67  1  0.05627300  0.32377100  0.24389400  1
  H  68  1  0.08579150  0.30648800  0.25618850  1
  H  69  1  0.11972350  0.29437300  0.26712450  1
  H  70  1  0.17082650  0.35793500  0.26331850  1
  H  71  1  0.10069200  0.40159650  0.23670150  1
  H  72  1  0.10736550  0.33772650  0.19325400  1
  H  73  1  0.16030250  0.38984850  0.17991600  1
  H  74  1  0.18368650  0.42363900  0.22607550  1
  H  75  1  0.15048850  0.40819450  0.30677200  1
  H  76  1  0.20365300  0.45154400  0.27392100  1
  H  77  1  0.21602650  0.47436900  0.32007650  1
  H  189  1  0.65932500  0.18062400  0.38630100  1
  H  190  1  0.68231800  0.22666900  0.42023300  1
  H  191  1  0.69954750  0.27347450  0.44974700  1
  H  192  1  0.71161950  0.31951700  0.47271550  1
  H  193  1  0.64799250  0.30690050  0.40529100  1
  H  194  1  0.60446250  0.19310000  0.33516550  1
  H  195  1  0.66827150  0.26367250  0.35552800  1
  H  196  1  0.61609550  0.26435250  0.28998800  1
  H  197  1  0.58229700  0.25391850  0.30234250  1
  H  198  1  0.59781400  0.23634100  0.39859300  1
  H  199  1  0.55438750  0.24597100  0.32227550  1
  H  200  1  0.53157700  0.23555350  0.34562750  1
  H  230  1  0.80031150  0.76702300  0.11380550  1
  H  231  1  0.81237300  0.75607650  0.07983350  1
  H  232  1  0.82961850  0.74379200  0.05027750  1
  H  233  1  0.85264650  0.73288950  0.02725700  1
  H  234  1  0.90754250  0.73671100  0.09464450  1
  H  235  1  0.86397750  0.76331550  0.16488200  1
  H  236  1  0.91411950  0.80674900  0.14445750  1
  H  237  1  0.98038100  0.82010750  0.20995050  1
  H  238  1  0.95760050  0.77395300  0.19759650  1
  H  239  1  0.84373150  0.69323100  0.10141750  1
  H  240  1  0.92972450  0.72610900  0.17766250  1
  H  241  1  0.89595250  0.67994900  0.15432750  1
  H  353  1  0.27304600  0.61372750  0.79433550  1
  H  354  1  0.26211400  0.57978800  0.80643800  1
  H  355  1  0.24981950  0.55025750  0.82370500  1
  H  356  1  0.23888850  0.52725850  0.84674300  1
  H  357  1  0.24268550  0.59466800  0.90157850  1
  H  358  1  0.26930500  0.66483700  0.85794800  1
  H  359  1  0.31275300  0.64445750  0.90814350  1
  H  360  1  0.32611850  0.70999050  0.97437000  1
  H  361  1  0.27996600  0.69763800  0.95158300  1
  H  362  1  0.19923450  0.60140350  0.83774900  1
  H  363  1  0.23212000  0.67769950  0.92370650  1
  H  364  1  0.18595900  0.65435400  0.88993600  1
  H  394  1  0.68646950  0.88613450  0.65319000  1
  H  395  1  0.73250200  0.92011900  0.67623500  1
  H  396  1  0.77930350  0.94969450  0.69351800  1
  H  397  1  0.82535000  0.97274300  0.70563100  1
  H  398  1  0.81288750  0.90537650  0.64206500  1
  H  399  1  0.69909200  0.83510250  0.59840550  1
  H  400  1  0.76963450  0.85552050  0.66227300  1
  H  401  1  0.77044500  0.79005850  0.61014850  1
  H  402  1  0.76003800  0.80242800  0.57635900  1
  H  403  1  0.74229400  0.89857550  0.59181150  1
  H  404  1  0.75209950  0.82237000  0.54845550  1
  H  405  1  0.74165050  0.84570300  0.52563250  1
  H  517  1  0.48040150  0.76443500  0.65435950  1
  H  518  1  0.45758800  0.75402200  0.67771000  1
  H  519  1  0.42967100  0.74606800  0.69763500  1
  H  520  1  0.39586350  0.73562150  0.70997800  1
  H  521  1  0.34370600  0.73632750  0.64444950  1
  H  522  1  0.41417650  0.76366550  0.60139900  1
  H  523  1  0.40753200  0.80691100  0.66482500  1
  H  524  1  0.35267900  0.81939700  0.61369500  1
  H  525  1  0.32967850  0.77335200  0.57976050  1
  H  526  1  0.36398900  0.69310700  0.59468900  1
  H  527  1  0.31244400  0.72654750  0.55024250  1
  H  528  1  0.30037200  0.68050650  0.52726550  1
  H  558  1  0.03159700  0.17990150  0.79005850  1
  H  559  1  0.05438050  0.22605900  0.80242750  1
  H  560  1  0.08226900  0.27389950  0.82235850  1
  H  561  1  0.11604750  0.32005700  0.84569850  1
  H  562  1  0.16825700  0.30675800  0.89859900  1
  H  563  1  0.09785650  0.19323800  0.85553650  1
  H  564  1  0.10443950  0.26328750  0.90536700  1
  H  565  1  0.15932800  0.26710000  0.97275300  1
  H  566  1  0.18234950  0.25618200  0.94972750  1
  H  567  1  0.14800900  0.23668500  0.83513400  1
  H  568  1  0.19959450  0.24389600  0.92017250  1
  H  569  1  0.21166650  0.23296650  0.88620600  1
  H  681  1  0.66024600  0.97437250  0.26437050  1
  H  682  1  0.68361150  0.95158600  0.25393250  1
  H  683  1  0.70357400  0.92370650  0.24598150  1
  H  684  1  0.71597150  0.88994050  0.23556400  1
  H  685  1  0.65052100  0.83775600  0.23634600  1
  H  686  1  0.60739050  0.90814550  0.26368100  1
  H  687  1  0.67089650  0.90160400  0.30690350  1
  H  688  1  0.61988700  0.84677950  0.31950650  1
  H  689  1  0.58591400  0.82371700  0.27346600  1
  H  690  1  0.60063350  0.85793900  0.19310250  1
  H  691  1  0.55633700  0.80644100  0.22666600  1
  H  692  1  0.53329100  0.79432750  0.18061950  1
  H  722  1  0.79597350  0.52561250  0.67993600  1
  H  723  1  0.80835150  0.54843000  0.72609350  1
  H  724  1  0.82830800  0.57633800  0.77393600  1
  H  725  1  0.85168300  0.61013000  0.82009400  1
  H  726  1  0.90459800  0.66227400  0.80675200  1
  H  727  1  0.86148250  0.59181050  0.69323400  1
  H  728  1  0.91130950  0.59843150  0.76332200  1
  H  729  1  0.97869350  0.65323650  0.76706300  1
  H  730  1  0.95568100  0.67625500  0.75610500  1
  H  731  1  0.84112750  0.64204350  0.73669200  1
  H  732  1  0.92614150  0.69351150  0.74379800  1
  H  733  1  0.89219800  0.70561100  0.73287000  1
  H  845  1  0.27032150  0.15428850  0.47435200  1
  H  846  1  0.25989100  0.17763100  0.45153400  1
  H  847  1  0.25193950  0.19756350  0.42362300  1
  H  848  1  0.24150850  0.20991800  0.38982550  1
  H  849  1  0.24230500  0.14444550  0.33769450  1
  H  850  1  0.26964550  0.10139200  0.40816050  1
  H  851  1  0.31286850  0.16486150  0.40154800  1
  H  852  1  0.32545300  0.11378800  0.34675700  1
  H  853  1  0.27941900  0.07981700  0.32373100  1
  H  854  1  0.19906500  0.09462750  0.35791550  1
  H  855  1  0.23261900  0.05026050  0.30646250  1
  H  856  1  0.18656900  0.02724150  0.29434450  1
  H  886  1  0.68589750  0.29002900  0.02564550  1
  H  887  1  0.73205100  0.30238550  0.04842850  1
  H  888  1  0.77989100  0.32230800  0.07631300  1
  H  889  1  0.82605100  0.34565000  0.11008400  1
  H  890  1  0.81277900  0.39860450  0.16227250  1
  H  891  1  0.69925850  0.35555050  0.09188000  1
  H  892  1  0.76930850  0.40533100  0.09842650  1
  H  893  1  0.77312100  0.47275050  0.15326350  1
  H  894  1  0.76220450  0.44976050  0.17631500  1
  H  895  1  0.74271300  0.33517900  0.14207900  1
  H  896  1  0.74992150  0.42023900  0.19359450  1
  H  897  1  0.73899750  0.38630350  0.20570600  1
  H  991  1  0.26979500  0.07706400  0.51763100  1
  H  992  1  0.26203150  0.08844150  0.48304100  1
  H  999  1  0.30604700  0.12550500  0.58107800  1
  H  1000  1  0.32144300  0.12546400  0.62226100  1
  H  1001  1  0.34440200  0.06970350  0.59219350  1
  H  1002  1  0.34457550  0.14233750  0.52122000  1
  H  1004  1  0.37420100  0.14848850  0.56200850  1
  H  1005  1  0.36416900  0.13252550  0.57695950  1
  H  1007  1  0.32391350  0.06448250  0.52821100  1
  H  1008  1  0.33740600  0.05413150  0.54803550  1
  H  1011  1  0.31099050  0.14621100  0.48977650  1
  H  1012  1  0.36630850  0.10172750  0.64052500  1
  H  1019  1  0.24217850  0.25386750  0.31329600  1
  H  1020  1  0.24993300  0.22700100  0.33239500  1
  H  1027  1  0.20582200  0.28092550  0.32538350  1
  H  1028  1  0.19037400  0.30668500  0.30997400  1
  H  1029  1  0.16749150  0.25375150  0.23124000  1
  H  1030  1  0.16736550  0.18250000  0.30355750  1
  H  1032  1  0.13774300  0.19367600  0.28011100  1
  H  1033  1  0.14777950  0.21871000  0.27424950  1
  H  1035  1  0.18807250  0.21029200  0.24649750  1
  H  1036  1  0.17450200  0.21658850  0.22265050  1
  H  1039  1  0.20090500  0.18470000  0.34106800  1
  H  1040  1  0.14552050  0.28015950  0.24141700  1
  H  1047  1  0.94656400  0.42290500  0.18672200  1
  H  1048  1  0.90059500  0.41152300  0.16759200  1
  H  1055  1  0.96156750  0.37442500  0.17458250  1
  H  1056  1  0.00281100  0.37450350  0.19003450  1
  H  1057  1  0.02855050  0.43041050  0.26871100  1
  H  1058  1  0.88491600  0.35768150  0.19630550  1
  H  1060  1  0.91956700  0.35155500  0.21979800  1
  H  1061  1  0.95047600  0.36751250  0.22571250  1
  H  1063  1  0.96976150  0.43558250  0.25342200  1
  H  1064  1  0.99995700  0.44598200  0.27726500  1
  H  1067  1  0.84958350  0.35378250  0.15884200  1
  H  1068  1  0.04481700  0.39834350  0.25862450  1
  H  1075  1  0.56542700  0.24608950  0.98231750  1
  H  1076  1  0.61139100  0.27294000  0.01693800  1
  H  1083  1  0.55046900  0.21908950  0.91890550  1
  H  1084  1  0.50929850  0.19334000  0.87769950  1
  H  1085  1  0.48348250  0.24623950  0.90779600  1
  H  1086  1  0.62706650  0.31750750  0.97893500  1
  H  1088  1  0.59244250  0.30636600  0.93815350  1
  H  1089  1  0.56154600  0.28133100  0.92314400  1
  H  1091  1  0.54220000  0.28967900  0.97183900  1
  H  1092  1  0.51205400  0.28338300  0.95198300  1
  H  1095  1  0.66237050  0.31524700  0.01023550  1
  H  1096  1  0.46727550  0.21987450  0.85942400  1
  H  1103  1  0.75213500  0.48233000  0.55943900  1
  H  1104  1  0.77897250  0.51692150  0.60540600  1
  H  1111  1  0.72499000  0.41883150  0.54443850  1
  H  1112  1  0.69920350  0.37767050  0.50319000  1
  H  1113  1  0.75214200  0.40786250  0.47746050  1
  H  1114  1  0.82335000  0.47875000  0.62110200  1
  H  1116  1  0.81219100  0.43796750  0.58645450  1
  H  1117  1  0.78720300  0.42301750  0.55554250  1
  H  1119  1  0.79563400  0.47181850  0.53625650  1
  H  1120  1  0.78928400  0.45202950  0.50606050  1
  H  1123  1  0.82119400  0.51017850  0.65641850  1
  H  1124  1  0.72579350  0.35952450  0.46118700  1
  H  1131  1  0.92891550  0.68671950  0.94057500  1
  H  1132  1  0.91755850  0.66760950  0.89460600  1
  H  1139  1  0.88046000  0.67461500  0.95556300  1
  H  1140  1  0.88044150  0.69004150  0.99674100  1
  H  1141  1  0.93628400  0.76876800  0.02250600  1
  H  1142  1  0.86376950  0.69637850  0.87892900  1
  H  1144  1  0.85759100  0.71981900  0.91355300  1
  H  1145  1  0.87351050  0.72570250  0.94445500  1
  H  1147  1  0.94157300  0.75348300  0.96376900  1
  H  1148  1  0.95186050  0.77733950  0.99391200  1
  H  1151  1  0.85982100  0.65889000  0.84361800  1
  H  1152  1  0.90416650  0.75861250  0.03876800  1
  H  1159  1  0.75982850  0.81327850  0.23618300  1
  H  1160  1  0.73299200  0.83241350  0.24393250  1
  H  1167  1  0.78700950  0.82544150  0.19990200  1
  H  1168  1  0.81279500  0.80999450  0.18451250  1
  H  1169  1  0.75979450  0.73129350  0.16162200  1
  H  1170  1  0.68862350  0.80373000  0.16138050  1
  H  1172  1  0.69979050  0.78024950  0.13176500  1
  H  1173  1  0.72478000  0.77432800  0.14180600  1
  H  1175  1  0.71630350  0.74657500  0.18210450  1
  H  1176  1  0.72264000  0.72273000  0.16862800  1
  H  1179  1  0.69073850  0.84117800  0.19494050  1
  H  1180  1  0.78620350  0.74137750  0.13969600  1
  H  1187  1  0.58308100  0.01767850  0.26379450  1
  H  1188  1  0.59443000  0.98306050  0.25602550  1
  H  1195  1  0.63154150  0.08111300  0.30016950  1
  H  1196  1  0.63156600  0.12231350  0.31562550  1
  H  1197  1  0.57570350  0.09222000  0.33848350  1
  H  1198  1  0.64819400  0.02113100  0.33858300  1
  H  1200  1  0.65437300  0.06192750  0.36821750  1
  H  1201  1  0.63846350  0.07692100  0.35819050  1
  H  1203  1  0.57040450  0.02818900  0.31789050  1
  H  1204  1  0.56011700  0.04804350  0.33146150  1
  H  1207  1  0.65215250  0.98979600  0.30501950  1
  H  1208  1  0.60782100  0.14060200  0.36045700  1
  H  1215  1  0.19270600  0.44055650  0.92291350  1
  H  1216  1  0.17356800  0.39458800  0.91153500  1
  H  1223  1  0.18054400  0.45556050  0.87448550  1
  H  1224  1  0.19597650  0.49678600  0.87452450  1
  H  1225  1  0.27469500  0.52249650  0.93030450  1
  H  1226  1  0.20227600  0.37889100  0.85769100  1
  H  1228  1  0.22576600  0.41353500  0.85155500  1
  H  1229  1  0.23168400  0.44444600  0.86750700  1
  H  1231  1  0.25943500  0.46374000  0.93553500  1
  H  1232  1  0.28327400  0.49391700  0.94588700  1
  H  1235  1  0.16479750  0.34357050  0.85379100  1
  H  1236  1  0.26456950  0.53878150  0.89826300  1
  H  1243  1  0.98830300  0.05941150  0.74611350  1
  H  1244  1  0.02292400  0.10537650  0.77296850  1
  H  1251  1  0.92489450  0.04444800  0.71907050  1
  H  1252  1  0.88368650  0.00328150  0.69331500  1
  H  1253  1  0.91373950  0.97748000  0.74624750  1
  H  1254  1  0.98488100  0.12105600  0.81749000  1
  H  1256  1  0.94408800  0.08643550  0.80633050  1
  H  1257  1  0.92908450  0.05553700  0.78129850  1
  H  1259  1  0.97778400  0.03619600  0.78970200  1
  H  1260  1  0.95791700  0.00605250  0.78340750  1
  H  1263  1  0.01621050  0.15636150  0.81527300  1
  H  1264  1  0.86535950  0.96125050  0.71984200  1
  H  1271  1  0.52364600  0.76382400  0.57708700  1
  H  1272  1  0.48906100  0.75607650  0.58847150  1
  H  1279  1  0.58713450  0.80014550  0.62556800  1
  H  1280  1  0.62830000  0.81551900  0.62548900  1
  H  1281  1  0.59814200  0.83831750  0.56960450  1
  H  1282  1  0.52724800  0.83862700  0.64234500  1
  H  1284  1  0.56803100  0.86824400  0.64847800  1
  H  1285  1  0.58297650  0.85820050  0.63251200  1
  H  1287  1  0.53418450  0.81786200  0.56443850  1
  H  1288  1  0.55398100  0.83130900  0.55404200  1
  H  1291  1  0.49579750  0.80506600  0.64622750  1
  H  1292  1  0.64647400  0.86028350  0.60166350  1
  H  1299  1  0.31933350  0.73623300  0.75390550  1
  H  1300  1  0.33843950  0.74399500  0.72704750  1
  H  1307  1  0.33139200  0.69983950  0.78093250  1
  H  1308  1  0.31597100  0.68438450  0.80668250  1
  H  1309  1  0.23725350  0.66156250  0.75377100  1
  H  1310  1  0.30957350  0.66142550  0.68251400  1
  H  1312  1  0.28610700  0.63179450  0.69367250  1
  H  1313  1  0.28024500  0.64182650  0.71870650  1
  H  1315  1  0.25252950  0.68215900  0.71032650  1
  H  1316  1  0.22867800  0.66859650  0.71662150  1
  H  1319  1  0.34712050  0.69498250  0.68475600  1
  H  1320  1  0.24741350  0.63956500  0.78014250  1
  H  1327  1  0.74217500  0.92289350  0.48233050  1
  H  1328  1  0.74993300  0.91152000  0.51692400  1
  H  1335  1  0.70583500  0.87439950  0.41884150  1
  H  1336  1  0.69046050  0.87447950  0.37767700  1
  H  1337  1  0.66769050  0.93038500  0.40784950  1
  H  1338  1  0.66738450  0.85764900  0.47875450  1
  H  1340  1  0.63775900  0.85151200  0.43797100  1
  H  1341  1  0.64779650  0.86747350  0.42302000  1
  H  1343  1  0.68815200  0.93555350  0.47180850  1
  H  1344  1  0.67470850  0.94595350  0.45201400  1
  H  1347  1  0.70097650  0.85376250  0.51018000  1
  H  1348  1  0.64570850  0.89831400  0.35951250  1
  H  1355  1  0.76975150  0.74609250  0.68666300  1
  H  1356  1  0.76200000  0.77295650  0.66756150  1
  H  1363  1  0.80613850  0.71905950  0.67460400  1
  H  1364  1  0.82158300  0.69330050  0.69002050  1
  H  1365  1  0.84440600  0.74620700  0.76874100  1
  H  1366  1  0.84457250  0.81748300  0.69643950  1
  H  1368  1  0.87419600  0.80631650  0.71990350  1
  H  1369  1  0.86415750  0.78128000  0.72576150  1
  H  1371  1  0.82382550  0.78966350  0.75347200  1
  H  1372  1  0.83738250  0.78336150  0.77732100  1
  H  1375  1  0.81103700  0.81526850  0.65891050  1
  H  1376  1  0.86640750  0.71983450  0.75856400  1
  H  1383  1  0.06545750  0.57714700  0.81334350  1
  H  1384  1  0.11142450  0.58852050  0.83247200  1
  H  1391  1  0.05046200  0.62557400  0.82545900  1
  H  1392  1  0.00923700  0.62553500  0.81003100  1
  H  1393  1  0.98348100  0.56968450  0.73132650  1
  H  1394  1  0.12709200  0.64228050  0.80366650  1
  H  1396  1  0.09244100  0.64839900  0.78015700  1
  H  1397  1  0.06153850  0.63246700  0.77426350  1
  H  1399  1  0.04223450  0.56444600  0.74657950  1
  H  1400  1  0.01204800  0.55408150  0.72274650  1
  H  1403  1  0.16242550  0.64622050  0.84117300  1
  H  1404  1  0.96726300  0.60178050  0.74146450  1
  H  1411  1  0.44659200  0.75388050  0.01767450  1
  H  1412  1  0.40062550  0.72702800  0.98305750  1
  H  1419  1  0.46156850  0.78094500  0.08111050  1
  H  1420  1  0.50274350  0.80669000  0.12230950  1
  H  1421  1  0.52851550  0.75374200  0.09222050  1
  H  1422  1  0.38493700  0.68254650  0.02113350  1
  H  1424  1  0.41955750  0.69371250  0.06193100  1
  H  1425  1  0.45045900  0.71873450  0.07692450  1
  H  1427  1  0.46978500  0.71030000  0.02819100  1
  H  1428  1  0.49992700  0.71658650  0.04804550  1
  H  1431  1  0.34964050  0.68476950  0.98979700  1
  H  1432  1  0.54477700  0.78014950  0.14060150  1
  H  1439  1  0.25983650  0.51767000  0.44057450  1
  H  1440  1  0.23300400  0.48307600  0.39460700  1
  H  1447  1  0.28700800  0.58115950  0.45557150  1
  H  1448  1  0.31279450  0.62232700  0.49681450  1
  H  1449  1  0.25982500  0.59217050  0.52252850  1
  H  1450  1  0.18864800  0.52126300  0.37889200  1
  H  1452  1  0.19981150  0.56205150  0.41353300  1
  H  1453  1  0.22479500  0.57700150  0.44444750  1
  H  1455  1  0.21633050  0.52820900  0.46373850  1
  H  1456  1  0.22267450  0.54800800  0.49392850  1
  H  1459  1  0.19080650  0.48982550  0.34358500  1
  H  1460  1  0.28621100  0.64051350  0.53883650  1
  H  1467  1  0.08307050  0.31330600  0.05942950  1
  H  1468  1  0.09442500  0.33241300  0.10539700  1
  H  1475  1  0.13151200  0.32537700  0.04444500  1
  H  1476  1  0.13153950  0.30995450  0.00327100  1
  H  1477  1  0.07567400  0.23123200  0.97748500  1
  H  1478  1  0.14815250  0.30357300  0.12105450  1
  H  1480  1  0.15431600  0.28011450  0.08642550  1
  H  1481  1  0.13841250  0.27424750  0.05552900  1
  H  1483  1  0.07036500  0.24651050  0.03621050  1
  H  1484  1  0.06007900  0.22265700  0.00606600  1
  H  1487  1  0.15213250  0.34108800  0.15636650  1
  H  1488  1  0.10781700  0.24139100  0.96124500  1
  H  1495  1  0.25214350  0.18670000  0.76382250  1
  H  1496  1  0.27897950  0.16756800  0.75606550  1
  H  1503  1  0.22499750  0.17455600  0.80012650  1
  H  1504  1  0.19921150  0.18999900  0.81552150  1
  H  1505  1  0.25219000  0.26869850  0.83838550  1
  H  1506  1  0.32339600  0.19629350  0.83861950  1
  H  1508  1  0.31224400  0.21978550  0.86824650  1
  H  1509  1  0.28724600  0.22569650  0.85821050  1
  H  1511  1  0.29567650  0.25342200  0.81789150  1
  H  1512  1  0.28933650  0.27726450  0.83136500  1
  H  1515  1  0.32124850  0.15882050  0.80504800  1
  H  1516  1  0.22579950  0.25860750  0.86032600  1
  H  1523  1  0.42892500  0.98234000  0.73619900  1
  H  1524  1  0.41757600  0.01695800  0.74396500  1
  H  1531  1  0.38046450  0.91890400  0.69982550  1
  H  1532  1  0.38043900  0.87770500  0.68437000  1
  H  1533  1  0.43630100  0.90779500  0.66151200  1
  H  1534  1  0.36381150  0.97888300  0.66140550  1
  H  1536  1  0.35763350  0.93808750  0.63177500  1
  H  1537  1  0.37354100  0.92309300  0.64180200  1
  H  1539  1  0.44160100  0.97182550  0.68210150  1
  H  1540  1  0.45189000  0.95197050  0.66853250  1
  H  1543  1  0.35985250  0.01022000  0.69496550  1
  H  1544  1  0.40418350  0.85941450  0.63953800  1
  H  1551  1  0.81924750  0.55943450  0.07707700  1
  H  1552  1  0.83838450  0.60540450  0.08845800  1
  H  1559  1  0.83144800  0.54442100  0.12554200  1
  H  1560  1  0.81600050  0.50318550  0.12548100  1
  H  1561  1  0.73729500  0.47750100  0.06969100  1
  H  1562  1  0.80978050  0.62111750  0.14239400  1
  H  1564  1  0.78631700  0.58647650  0.14854750  1
  H  1565  1  0.78038000  0.55556100  0.13257400  1
  H  1567  1  0.75257850  0.53628000  0.06450250  1
  H  1568  1  0.72873250  0.50609950  0.05413500  1
  H  1571  1  0.84720950  0.65643800  0.14624750  1
  H  1572  1  0.74739300  0.46117700  0.10170800  1
  H  1579  1  0.02358250  0.94056650  0.25377600  1
  H  1580  1  0.98897050  0.89459750  0.22690600  1
  H  1587  1  0.08705400  0.95556750  0.28094550  1
  H  1588  1  0.12824850  0.99674800  0.30669550  1
  H  1589  1  0.09819100  0.02247950  0.25369350  1
  H  1590  1  0.02717450  0.87891000  0.18256550  1
  H  1592  1  0.06800250  0.91353050  0.19379100  1
  H  1593  1  0.08296600  0.94443350  0.21879650  1
  H  1595  1  0.03417350  0.96373450  0.21023500  1
  H  1596  1  0.05403150  0.99387350  0.21651400  1
  H  1599  1  0.99575400  0.84359750  0.18467550  1
  H  1600  1  0.14656450  0.03876150  0.28013600  1
  H  1607  1  0.48831200  0.23617500  0.42287300  1
  H  1608  1  0.52290200  0.24393000  0.41149600  1
  H  1615  1  0.42487100  0.19988300  0.37444200  1
  H  1616  1  0.38369000  0.18448950  0.37448850  1
  H  1617  1  0.41378850  0.16160150  0.43030600  1
  H  1618  1  0.48476750  0.16137100  0.35768050  1
  H  1620  1  0.44399000  0.13174750  0.35155050  1
  H  1621  1  0.42902850  0.14178550  0.36749600  1
  H  1623  1  0.47777200  0.18209500  0.43552800  1
  H  1624  1  0.45795250  0.16861650  0.44589100  1
  H  1627  1  0.51618750  0.19493250  0.35377000  1
  H  1628  1  0.36545850  0.13966800  0.39826950  1
  H  1635  1  0.69269350  0.26378600  0.24610550  1
  H  1636  1  0.67356600  0.25600900  0.27294500  1
  H  1643  1  0.68062850  0.30019150  0.21907100  1
  H  1644  1  0.69607100  0.31564950  0.19333450  1
  H  1645  1  0.77477600  0.33845550  0.24626650  1
  H  1646  1  0.70237250  0.33856700  0.31745450  1
  H  1648  1  0.72584700  0.36821000  0.30630900  1
  H  1649  1  0.73173450  0.35818750  0.28129200  1
  H  1651  1  0.75946700  0.31785800  0.28969600  1
  H  1652  1  0.78332850  0.33141900  0.28341150  1
  H  1655  1  0.66483250  0.30499700  0.31520750  1
  H  1656  1  0.76465600  0.36045000  0.21987600  1
  N  38  1  0.34580150  0.11205600  0.65660150  1
  N  39  1  0.32031500  0.15772150  0.77219850  1
  N  40  1  0.39160100  0.04218050  0.72779650  1
  N  41  1  0.46147250  0.18326950  0.84334600  1
  N  79  1  0.16607400  0.31674750  0.27224850  1
  N  80  1  0.19168450  0.45788650  0.34341800  1
  N  81  1  0.12040350  0.34221250  0.15658800  1
  N  82  1  0.05059450  0.38800850  0.22778900  1
  N  202  1  0.68917600  0.34340700  0.45539500  1
  N  203  1  0.54810000  0.22779200  0.38551300  1
  N  204  1  0.66376200  0.27217400  0.31434300  1
  N  205  1  0.61812950  0.15665750  0.33993100  1
  N  243  1  0.89387400  0.72778200  0.04452200  1
  N  244  1  0.84828050  0.65659400  0.11448450  1
  N  245  1  0.96382600  0.84341850  0.18561250  1
  N  246  1  0.82277850  0.77222100  0.16017350  1
  N  366  1  0.23374750  0.54455200  0.88794750  1
  N  367  1  0.16259750  0.61447400  0.84228250  1
  N  368  1  0.34942700  0.68563350  0.95783350  1
  N  369  1  0.27821550  0.66009250  0.81674700  1
  N  407  1  0.84932550  0.95549400  0.68325450  1
  N  408  1  0.73379700  0.88553100  0.54212000  1
  N  409  1  0.77818350  0.81436600  0.65778550  1
  N  410  1  0.66258250  0.83978000  0.61199450  1
  N  530  1  0.34820600  0.72781500  0.68562700  1
  N  531  1  0.32280150  0.65660700  0.54457950  1
  N  532  1  0.39387150  0.84335800  0.66006350  1
  N  533  1  0.46388800  0.77220800  0.61448000  1
  N  571  1  0.16371400  0.34340350  0.88554650  1
  N  572  1  0.18921100  0.22778200  0.83984600  1
  N  573  1  0.11810600  0.27221950  0.95548750  1
  N  574  1  0.04815600  0.15657250  0.81437150  1
  N  694  1  0.69168600  0.84229000  0.22779800  1
  N  695  1  0.55052450  0.81673050  0.15665700  1
  N  696  1  0.66622000  0.88800050  0.34340450  1
  N  697  1  0.62040250  0.95783550  0.27219200  1
  N  735  1  0.89156100  0.65777850  0.84341750  1
  N  736  1  0.84585200  0.68322250  0.72775350  1
  N  737  1  0.96141450  0.61205150  0.77224900  1
  N  738  1  0.82029850  0.54211350  0.65659100  1
  N  858  1  0.23375750  0.18560300  0.34218550  1
  N  859  1  0.16260950  0.04450850  0.31671800  1
  N  860  1  0.34935700  0.16015500  0.38793100  1
  N  861  1  0.27815400  0.11444850  0.45785950  1
  N  899  1  0.84941500  0.38552900  0.15773600  1
  N  900  1  0.73382150  0.33994000  0.18329550  1
  N  901  1  0.77824100  0.45544350  0.11204850  1
  N  902  1  0.66258300  0.31437050  0.04219250  1
  N  1003  1  0.35955400  0.13535250  0.56172150  1
  N  1006  1  0.32980450  0.06536100  0.54548950  1
  N  1031  1  0.15239000  0.20805350  0.28164150  1
  N  1034  1  0.18216500  0.22167350  0.24149050  1
  N  1059  1  0.93240800  0.36468000  0.21827000  1
  N  1062  1  0.98616800  0.43471900  0.25843900  1
  N  1087  1  0.57959450  0.29197800  0.93841050  1
  N  1090  1  0.52581200  0.27830350  0.95455150  1
  N  1115  1  0.79782450  0.43825150  0.57361000  1
  N  1118  1  0.78424500  0.45454950  0.51984650  1
  N  1143  1  0.87072200  0.71830400  0.92640400  1
  N  1146  1  0.94068300  0.75849750  0.98016250  1
  N  1171  1  0.71415250  0.78176700  0.14641450  1
  N  1174  1  0.72769150  0.74156050  0.17621700  1
  N  1199  1  0.64124900  0.06165600  0.35357400  1
  N  1202  1  0.57129700  0.04547450  0.32379950  1
  N  1227  1  0.22424350  0.42638100  0.86468150  1
  N  1230  1  0.26444400  0.48013750  0.93465450  1
  N  1255  1  0.94435250  0.07358600  0.79195150  1
  N  1258  1  0.96049400  0.01980750  0.77832150  1
  N  1283  1  0.56774400  0.85359200  0.63534700  1
  N  1286  1  0.55145400  0.82374050  0.56530050  1
  N  1311  1  0.28764300  0.64644150  0.70805550  1
  N  1314  1  0.24751700  0.67624900  0.72170400  1
  N  1339  1  0.65241000  0.86464100  0.43825500  1
  N  1342  1  0.68227200  0.93469150  0.45453850  1
  N  1367  1  0.85954550  0.79193300  0.71836350  1
  N  1370  1  0.82973150  0.77828250  0.75848300  1
  N  1395  1  0.07960200  0.63529100  0.78170100  1
  N  1398  1  0.02583650  0.56532750  0.74157200  1
  N  1423  1  0.43240800  0.70808500  0.06165900  1
  N  1426  1  0.48617600  0.72167600  0.04547500  1
  N  1451  1  0.21417300  0.56176500  0.42638100  1
  N  1454  1  0.22772000  0.54548000  0.48014600  1
  N  1479  1  0.14119800  0.28164500  0.07358000  1
  N  1482  1  0.07125950  0.24149700  0.01981850  1
  N  1507  1  0.29787150  0.21825800  0.85359650  1
  N  1510  1  0.28429100  0.25843600  0.82378200  1
  N  1535  1  0.37075650  0.93835800  0.64641750  1
  N  1538  1  0.44070800  0.95454000  0.67619300  1
  N  1563  1  0.78782000  0.57362750  0.13540350  1
  N  1566  1  0.74756350  0.51987550  0.06537200  1
  N  1591  1  0.06770300  0.92638100  0.20813700  1
  N  1594  1  0.05145500  0.98012950  0.22161550  1
  N  1619  1  0.44426750  0.14639850  0.36467100  1
  N  1622  1  0.46049300  0.17620400  0.43464900  1
  N  1647  1  0.72432450  0.35356700  0.29193450  1
  N  1650  1  0.76448700  0.32376700  0.27832200  1
