# generated using pymatgen
data_H40C57(NO2)4
_symmetry_space_group_name_H-M   'P 1'
_cell_length_a   61.43029958
_cell_length_b   61.43029958
_cell_length_c   61.43029958
_cell_angle_alpha   109.47122063
_cell_angle_beta   109.47122063
_cell_angle_gamma   109.47122063
_symmetry_Int_Tables_number   1
_chemical_formula_structural   H40C57(NO2)4
_chemical_formula_sum   'H480 C684 N48 O96'
_cell_volume   178453.88580786
_cell_formula_units_Z   12
loop_
 _symmetry_equiv_pos_site_id
 _symmetry_equiv_pos_as_xyz
  1  'x, y, z'
loop_
 _atom_site_type_symbol
 _atom_site_label
 _atom_site_symmetry_multiplicity
 _atom_site_fract_x
 _atom_site_fract_y
 _atom_site_fract_z
 _atom_site_occupancy
  C  1  1  0.35591000  0.13053650  0.75594750  1
  C  2  1  0.34031950  0.10626100  0.75340050  1
  C  3  1  0.35027750  0.08948800  0.74658450  1
  C  4  1  0.37200950  0.10253600  0.74404450  1
  C  5  1  0.38617200  0.08976800  0.73784500  1
  C  6  1  0.37870450  0.06411100  0.73503750  1
  C  7  1  0.35617850  0.05111750  0.73709500  1
  C  8  1  0.34181950  0.06363150  0.74278700  1
  C  9  1  0.31827050  0.10160400  0.75721450  1
  C  10  1  0.31145100  0.12165800  0.76291300  1
  C  11  1  0.32650050  0.14624150  0.76497000  1
  C  12  1  0.34934450  0.15090000  0.76215550  1
  C  13  1  0.40467450  0.15093900  0.77189850  1
  C  14  1  0.41780800  0.16646500  0.76323600  1
  C  15  1  0.40064450  0.15714950  0.73675600  1
  C  16  1  0.37645750  0.13535050  0.72809300  1
  C  17  1  0.40463650  0.16634500  0.71958650  1
  C  18  1  0.38351450  0.15360250  0.69342100  1
  C  19  1  0.35837850  0.13198550  0.68426600  1
  C  20  1  0.35523950  0.12259300  0.70183250  1
  C  21  1  0.41817400  0.15599100  0.79816300  1
  C  22  1  0.44513800  0.17668600  0.81572500  1
  C  23  1  0.45759700  0.19267500  0.80657400  1
  C  24  1  0.44417200  0.18763200  0.78040600  1
  C  37  1  0.37725750  0.12983450  0.74999500  1
  C  38  1  0.33720800  0.11965000  0.65772600  1
  C  39  1  0.45934550  0.18205150  0.84226200  1
  C  40  1  0.39301850  0.05096450  0.73003100  1
  C  41  1  0.31835750  0.16556000  0.76997550  1
  C  46  1  0.13893000  0.39745950  0.27203450  1
  C  47  1  0.15452350  0.41048850  0.26334300  1
  C  48  1  0.14456250  0.39370350  0.23661500  1
  C  49  1  0.12282900  0.36943650  0.22793850  1
  C  50  1  0.10865950  0.34906700  0.20101050  1
  C  51  1  0.11612350  0.35371250  0.18281500  1
  C  52  1  0.13865450  0.37828900  0.19233950  1
  C  53  1  0.15301200  0.39835350  0.21920650  1
  C  54  1  0.17660200  0.43633500  0.28073700  1
  C  55  1  0.18343550  0.44885800  0.30761350  1
  C  56  1  0.16838600  0.43587950  0.31715750  1
  C  57  1  0.14552350  0.41023200  0.29897350  1
  C  58  1  0.09016650  0.36463400  0.24367650  1
  C  59  1  0.07703950  0.34284950  0.24608700  1
  C  60  1  0.09420600  0.33353500  0.25393700  1
  C  61  1  0.11839350  0.34906350  0.25632900  1
  C  62  1  0.09021450  0.31237450  0.25914100  1
  C  63  1  0.11133900  0.30733400  0.26752300  1
  C  64  1  0.13647450  0.32331500  0.27103950  1
  C  65  1  0.13960500  0.34400750  0.26476650  1
  C  66  1  0.07667050  0.37740450  0.23523700  1
  C  67  1  0.04971050  0.36801050  0.22898300  1
  C  68  1  0.03725400  0.34640300  0.23251700  1
  C  69  1  0.05067800  0.33366000  0.24089500  1
  C  82  1  0.11758650  0.37015450  0.24999600  1
  C  83  1  0.15764550  0.31794750  0.27987600  1
  C  84  1  0.03550300  0.38034450  0.22015250  1
  C  85  1  0.10179050  0.33438900  0.15535550  1
  C  86  1  0.17654000  0.44903500  0.34462100  1
  C  181  1  0.59994300  0.24400300  0.37456900  1
  C  182  1  0.58690050  0.24656950  0.35285400  1
  C  183  1  0.60367250  0.25339300  0.34289550  1
  C  184  1  0.62795500  0.25595450  0.35849050  1
  C  185  1  0.64830650  0.26214250  0.35190800  1
  C  186  1  0.64364000  0.26495000  0.32905800  1
  C  187  1  0.61905300  0.26288900  0.31401200  1
  C  188  1  0.59900250  0.25718650  0.32083300  1
  C  189  1  0.56106050  0.24281450  0.34442700  1
  C  190  1  0.54855750  0.23713250  0.35879700  1
  C  191  1  0.56155700  0.23507950  0.38132550  1
  C  192  1  0.58719750  0.23785300  0.38876550  1
  C  193  1  0.63278400  0.22809150  0.37902350  1
  C  194  1  0.65457300  0.23674950  0.40321550  1
  C  195  1  0.66387850  0.26322750  0.42038300  1
  C  196  1  0.64834900  0.27188700  0.40725000  1
  C  197  1  0.68503800  0.28039500  0.44674900  1
  C  198  1  0.69007300  0.30655950  0.46017550  1
  C  199  1  0.67408500  0.31570950  0.44771550  1
  C  200  1  0.65338700  0.29814400  0.42075100  1
  C  201  1  0.62001750  0.20182650  0.35781000  1
  C  202  1  0.62941900  0.18426450  0.36094650  1
  C  203  1  0.65103050  0.19341750  0.38608500  1
  C  204  1  0.66377100  0.21958250  0.40720950  1
  C  217  1  0.62725200  0.24998550  0.37982950  1
  C  218  1  0.67945000  0.34224600  0.46191900  1
  C  219  1  0.61708450  0.15772500  0.33977550  1
  C  220  1  0.66295800  0.26995600  0.32091400  1
  C  221  1  0.54843650  0.23011000  0.39566950  1
  C  226  1  0.86692000  0.72796750  0.12541850  1
  C  227  1  0.89120550  0.73666300  0.14713850  1
  C  228  1  0.90796700  0.76339450  0.15708750  1
  C  229  1  0.89489900  0.77207150  0.14150450  1
  C  230  1  0.90765850  0.79899700  0.14805450  1
  C  231  1  0.93329850  0.81720250  0.17092100  1
  C  232  1  0.94631150  0.80768150  0.18597200  1
  C  233  1  0.93381850  0.78080900  0.17915350  1
  C  234  1  0.89588000  0.71927650  0.15560950  1
  C  235  1  0.87582800  0.69240550  0.14127350  1
  C  236  1  0.85123350  0.68286000  0.11875250  1
  C  237  1  0.84656250  0.70103850  0.11127400  1
  C  238  1  0.84649200  0.75631050  0.12095750  1
  C  239  1  0.83096200  0.75391450  0.09676850  1
  C  240  1  0.84028050  0.74607300  0.07960350  1
  C  241  1  0.86207900  0.74368500  0.09274000  1
  C  242  1  0.83108750  0.74087650  0.05324200  1
  C  243  1  0.84383850  0.73250850  0.03982100  1
  C  244  1  0.86546050  0.72899600  0.05228550  1
  C  245  1  0.87485750  0.73525700  0.07924750  1
  C  246  1  0.84144050  0.76475500  0.14217150  1
  C  247  1  0.82073850  0.77101450  0.13903500  1
  C  248  1  0.80475000  0.76748650  0.11389650  1
  C  249  1  0.80979200  0.75910550  0.09277150  1
  C  262  1  0.86760300  0.75001050  0.12016050  1
  C  263  1  0.87779850  0.72016400  0.03808350  1
  C  264  1  0.81537300  0.77985500  0.16020600  1
  C  265  1  0.94641100  0.84466850  0.17906950  1
  C  266  1  0.83191750  0.65540100  0.10445750  1
  C  361  1  0.22538250  0.62542300  0.86946350  1
  C  362  1  0.23406750  0.64715200  0.89373850  1
  C  363  1  0.26079600  0.65710550  0.91051550  1
  C  364  1  0.26948000  0.64151300  0.89747200  1
  C  365  1  0.29640750  0.64807400  0.91024350  1
  C  366  1  0.31459600  0.67092100  0.93590100  1
  C  367  1  0.30506450  0.68597700  0.94889150  1
  C  368  1  0.27819450  0.67916200  0.93637350  1
  C  369  1  0.21667650  0.65562700  0.89839250  1
  C  370  1  0.18980550  0.64127500  0.87833750  1
  C  371  1  0.18027000  0.61874500  0.85375400  1
  C  372  1  0.19845500  0.61127000  0.84909900  1
  C  373  1  0.25375000  0.62096400  0.84906900  1
  C  374  1  0.25135650  0.59677450  0.83354500  1
  C  375  1  0.24349900  0.57960950  0.84285950  1
  C  376  1  0.24110800  0.59274900  0.86465500  1
  C  377  1  0.23828950  0.55324300  0.83366250  1
  C  378  1  0.22990100  0.53981950  0.84640250  1
  C  379  1  0.22637800  0.55228500  0.86801600  1
  C  380  1  0.23263700  0.57924500  0.87740800  1
  C  381  1  0.26221000  0.64217900  0.84402300  1
  C  382  1  0.26846900  0.63903750  0.82332050  1
  C  383  1  0.26493950  0.61389700  0.80733550  1
  C  384  1  0.25655700  0.59277500  0.81238100  1
  C  397  1  0.24743100  0.62016800  0.87017100  1
  C  398  1  0.21753550  0.53808250  0.88034900  1
  C  399  1  0.27730450  0.66020550  0.81794700  1
  C  400  1  0.34205500  0.67905800  0.94905000  1
  C  401  1  0.15281000  0.60443200  0.83443700  1
  C  406  1  0.74146150  0.87457100  0.60253950  1
  C  407  1  0.74402000  0.85284850  0.58950650  1
  C  408  1  0.75083850  0.84289800  0.60628650  1
  C  409  1  0.75338300  0.85849500  0.63055800  1
  C  410  1  0.75959050  0.85193850  0.65092900  1
  C  411  1  0.76241150  0.82909900  0.64628150  1
  C  412  1  0.76036250  0.81404600  0.62170350  1
  C  413  1  0.75464850  0.82084750  0.60163800  1
  C  414  1  0.74024900  0.84439800  0.56365900  1
  C  415  1  0.73456500  0.85875600  0.55114100  1
  C  416  1  0.73249700  0.88127800  0.56412200  1
  C  417  1  0.73528350  0.88874000  0.58976950  1
  C  418  1  0.72552900  0.87904100  0.63537000  1
  C  419  1  0.73419200  0.90323600  0.65715700  1
  C  420  1  0.76067350  0.92039800  0.66646850  1
  C  421  1  0.76932700  0.90725900  0.65093500  1
  C  422  1  0.77784550  0.94676300  0.68762850  1
  C  423  1  0.80400950  0.96018350  0.69266400  1
  C  424  1  0.81315850  0.94771500  0.67667850  1
  C  425  1  0.79559300  0.92075050  0.65598650  1
  C  426  1  0.69926350  0.85783250  0.62260600  1
  C  427  1  0.68169600  0.86098100  0.63199400  1
  C  428  1  0.69085300  0.88612350  0.65360350  1
  C  429  1  0.71702400  0.90724050  0.66634950  1
  C  442  1  0.74742600  0.87983700  0.62984500  1
  C  443  1  0.83969450  0.96191700  0.68203950  1
  C  444  1  0.65515050  0.83982300  0.61965650  1
  C  445  1  0.76740650  0.82096200  0.66560550  1
  C  446  1  0.72749800  0.89558950  0.55097050  1
  C  541  1  0.34648050  0.72809350  0.59274700  1
  C  542  1  0.33096800  0.73676500  0.57961200  1
  C  543  1  0.34028800  0.76324650  0.59678250  1
  C  544  1  0.36207150  0.77189600  0.62097450  1
  C  545  1  0.37483950  0.79815900  0.64219250  1
  C  546  1  0.36545800  0.81573300  0.63905600  1
  C  547  1  0.34385150  0.80659000  0.61391650  1
  C  548  1  0.33110750  0.78042400  0.59278850  1
  C  549  1  0.30980950  0.71960400  0.55324550  1
  C  550  1  0.30475700  0.69343350  0.53981850  1
  C  551  1  0.32073000  0.68427050  0.55227850  1
  C  552  1  0.34142800  0.70182950  0.57924250  1
  C  553  1  0.39488200  0.75594050  0.62542450  1
  C  554  1  0.40791550  0.75338150  0.64714700  1
  C  555  1  0.39114350  0.74658400  0.65711050  1
  C  556  1  0.36686400  0.74401950  0.64150250  1
  C  557  1  0.39580450  0.74280400  0.67917950  1
  C  558  1  0.37575050  0.73711750  0.68599800  1
  C  559  1  0.35117300  0.73507350  0.67094950  1
  C  560  1  0.34651250  0.73786000  0.64808950  1
  C  561  1  0.40765700  0.76213750  0.61126550  1
  C  562  1  0.43330800  0.76493150  0.61873150  1
  C  563  1  0.44629600  0.76287600  0.64126200  1
  C  564  1  0.43377050  0.75717250  0.65560900  1
  C  577  1  0.36758100  0.74998900  0.62016800  1
  C  578  1  0.33185550  0.73009400  0.67909450  1
  C  579  1  0.44646050  0.76993650  0.60442200  1
  C  580  1  0.37779600  0.84227150  0.66022850  1
  C  581  1  0.31535050  0.65772650  0.53807100  1
  C  586  1  0.14833950  0.24364900  0.87902550  1
  C  587  1  0.16388700  0.24606900  0.90322400  1
  C  588  1  0.15458700  0.25393950  0.92039750  1
  C  589  1  0.13280250  0.25635000  0.90727050  1
  C  590  1  0.12002400  0.26477800  0.92076300  1
  C  591  1  0.12943550  0.27105850  0.94773100  1
  C  592  1  0.15105250  0.26753900  0.96019350  1
  C  593  1  0.16378650  0.25914500  0.94676350  1
  C  594  1  0.18505100  0.24086950  0.90721550  1
  C  595  1  0.19008700  0.23248150  0.88608850  1
  C  596  1  0.17409500  0.22894800  0.86094800  1
  C  597  1  0.15338750  0.23520050  0.85781100  1
  C  598  1  0.09994500  0.22794700  0.85851900  1
  C  599  1  0.08690350  0.23661700  0.84290550  1
  C  600  1  0.10367850  0.26334350  0.85284600  1
  C  601  1  0.12796200  0.27203050  0.87456350  1
  C  602  1  0.09901650  0.28073000  0.84436750  1
  C  603  1  0.11907100  0.30760050  0.85871050  1
  C  604  1  0.14365800  0.31714150  0.88123650  1
  C  605  1  0.14832550  0.29895850  0.88870900  1
  C  606  1  0.08718900  0.20101400  0.85194700  1
  C  607  1  0.06154850  0.18281250  0.82907900  1
  C  608  1  0.04854700  0.19233600  0.81402100  1
  C  609  1  0.06105350  0.21920800  0.82083750  1
  C  622  1  0.12725800  0.24999450  0.87983950  1
  C  623  1  0.16297300  0.34460250  0.89554650  1
  C  624  1  0.04843050  0.15534850  0.82093200  1
  C  625  1  0.11710400  0.27989750  0.96193750  1
  C  626  1  0.17946450  0.22011450  0.83977800  1
  C  721  1  0.59017150  0.84909700  0.22811550  1
  C  722  1  0.57703800  0.83355050  0.23676250  1
  C  723  1  0.59420650  0.84284250  0.26323500  1
  C  724  1  0.61840600  0.86462300  0.27189500  1
  C  725  1  0.63961600  0.87738600  0.29816100  1
  C  726  1  0.63647050  0.86798900  0.31572350  1
  C  727  1  0.61132700  0.84638050  0.30656650  1
  C  728  1  0.59020500  0.83364600  0.28040100  1
  C  729  1  0.55067150  0.81239400  0.21958950  1
  C  730  1  0.53724800  0.80736950  0.19343050  1
  C  731  1  0.54971400  0.82336100  0.18428600  1
  C  732  1  0.57667650  0.84405750  0.20185500  1
  C  733  1  0.62288300  0.89748750  0.25601050  1
  C  734  1  0.64460300  0.91052600  0.25345000  1
  C  735  1  0.65454300  0.89374050  0.24660850  1
  C  736  1  0.63892600  0.86945150  0.24402050  1
  C  737  1  0.67660050  0.89840100  0.24280750  1
  C  738  1  0.68341100  0.87834250  0.23709750  1
  C  739  1  0.66835300  0.85375400  0.23503000  1
  C  740  1  0.64550700  0.84909850  0.23784250  1
  C  741  1  0.60871200  0.91025200  0.26219500  1
  C  742  1  0.61616300  0.93589550  0.26497250  1
  C  743  1  0.63869200  0.94888850  0.26291750  1
  C  744  1  0.65305450  0.93637600  0.25723450  1
  C  757  1  0.61760200  0.87017000  0.25001000  1
  C  758  1  0.67649250  0.83443300  0.23003150  1
  C  759  1  0.60183250  0.94903050  0.26995200  1
  C  760  1  0.65763300  0.88032550  0.34226750  1
  C  761  1  0.53551450  0.81800050  0.15774900  1
  C  766  1  0.87645350  0.65092150  0.74366300  1
  C  767  1  0.90064550  0.66645500  0.74606450  1
  C  768  1  0.91781550  0.65714750  0.75392800  1
  C  769  1  0.90468700  0.63536350  0.75633850  1
  C  770  1  0.91818150  0.62259200  0.76477750  1
  C  771  1  0.94514050  0.63198250  0.77102900  1
  C  772  1  0.95760000  0.65359350  0.76750150  1
  C  773  1  0.94417850  0.66634000  0.75912350  1
  C  774  1  0.90463900  0.68761600  0.74086100  1
  C  775  1  0.88351250  0.69265300  0.73247050  1
  C  776  1  0.85837450  0.67666700  0.72894450  1
  C  777  1  0.85523950  0.65596750  0.73520800  1
  C  778  1  0.85592700  0.60252350  0.72794550  1
  C  779  1  0.84032350  0.58948000  0.73662150  1
  C  780  1  0.85027000  0.60625300  0.76334900  1
  C  781  1  0.87199250  0.63053500  0.77203650  1
  C  782  1  0.84180800  0.60158550  0.78074250  1
  C  783  1  0.85615900  0.62163600  0.80761500  1
  C  784  1  0.87868500  0.64622250  0.81715350  1
  C  785  1  0.88614750  0.65089350  0.79896700  1
  C  786  1  0.84936800  0.58975700  0.70101800  1
  C  787  1  0.82651900  0.56410350  0.68282450  1
  C  788  1  0.81146550  0.55110400  0.69235250  1
  C  789  1  0.81826750  0.56362150  0.71921800  1
  C  802  1  0.87726000  0.62983050  0.74999550  1
  C  803  1  0.89299950  0.66553300  0.84461650  1
  C  804  1  0.81837850  0.55097050  0.65536300  1
  C  805  1  0.95934400  0.61964500  0.77985700  1
  C  806  1  0.83720450  0.68203600  0.72010850  1
  C  901  1  0.22552750  0.09273750  0.34905500  1
  C  902  1  0.23419850  0.07960050  0.33354200  1
  C  903  1  0.26067650  0.09677250  0.34285600  1
  C  904  1  0.26932650  0.12096700  0.36463750  1
  C  905  1  0.29558700  0.14218700  0.37739900  1
  C  906  1  0.31315950  0.13905000  0.36801450  1
  C  907  1  0.30401700  0.11390800  0.34641200  1
  C  908  1  0.27785450  0.09278000  0.33367350  1
  C  909  1  0.21703900  0.05323000  0.31239000  1
  C  910  1  0.19087150  0.03980050  0.30734500  1
  C  911  1  0.18170950  0.05226300  0.32331750  1
  C  912  1  0.19926700  0.07923100  0.34400900  1
  C  913  1  0.25337900  0.12542300  0.39745400  1
  C  914  1  0.25081750  0.14714450  0.41048500  1
  C  915  1  0.24401300  0.15710150  0.39370750  1
  C  916  1  0.24144650  0.14149150  0.36942800  1
  C  917  1  0.24023100  0.17916900  0.39836500  1
  C  918  1  0.23454050  0.18598450  0.37830900  1
  C  919  1  0.23249700  0.17093400  0.35373300  1
  C  920  1  0.23528350  0.14807450  0.34907400  1
  C  921  1  0.25958050  0.11126850  0.41023200  1
  C  922  1  0.26237700  0.11873950  0.43588550  1
  C  923  1  0.26031950  0.14126800  0.44886950  1
  C  924  1  0.25461150  0.15561050  0.43634000  1
  C  937  1  0.24742150  0.12016000  0.37014950  1
  C  938  1  0.22752250  0.17907900  0.33441450  1
  C  939  1  0.26738150  0.10443200  0.44903950  1
  C  940  1  0.33969750  0.16022400  0.38034950  1
  C  941  1  0.15516750  0.03805600  0.31794250  1
  C  946  1  0.74107850  0.37902450  0.15091300  1
  C  947  1  0.74349300  0.40321950  0.16645650  1
  C  948  1  0.75135600  0.42039150  0.15715150  1
  C  949  1  0.75376800  0.40726450  0.13536650  1
  C  950  1  0.76218700  0.42075350  0.12258350  1
  C  951  1  0.76845900  0.44771950  0.13198950  1
  C  952  1  0.76493700  0.46018050  0.15360450  1
  C  953  1  0.75655250  0.44675400  0.16634450  1
  C  954  1  0.73829700  0.40721450  0.18762250  1
  C  955  1  0.72991200  0.38608750  0.19266050  1
  C  956  1  0.72638350  0.36094850  0.17667100  1
  C  957  1  0.73263450  0.35781000  0.15596350  1
  C  958  1  0.72537450  0.35851100  0.10251650  1
  C  959  1  0.73404700  0.34290100  0.08947700  1
  C  960  1  0.76077450  0.35284650  0.10625100  1
  C  961  1  0.76946100  0.37456700  0.13053400  1
  C  962  1  0.77816450  0.34437300  0.10158950  1
  C  963  1  0.80503550  0.35872100  0.12164350  1
  C  964  1  0.81457600  0.38124850  0.14623050  1
  C  965  1  0.79639050  0.38871800  0.15089650  1
  C  966  1  0.69844100  0.35193450  0.08975950  1
  C  967  1  0.68024050  0.32906600  0.06411850  1
  C  968  1  0.68976750  0.31401050  0.05112100  1
  C  969  1  0.71664000  0.32082950  0.06362750  1
  C  982  1  0.74742100  0.37983650  0.12982850  1
  C  983  1  0.84203750  0.39556250  0.16554600  1
  C  984  1  0.65277600  0.32091800  0.05099600  1
  C  985  1  0.77729300  0.46192550  0.11965550  1
  C  986  1  0.71754900  0.33977950  0.18204150  1
  C  1081  1  0.31808400  0.12381700  0.61826500  1
  C  1082  1  0.30950900  0.13985450  0.61007650  1
  C  1083  1  0.29656150  0.13288650  0.58299000  1
  C  1084  1  0.29205400  0.10881650  0.56342350  1
  C  1085  1  0.30029450  0.09252100  0.57131750  1
  C  1086  1  0.31318200  0.09996950  0.59835650  1
  C  1089  1  0.28204350  0.10191350  0.53628500  1
  C  1090  1  0.30053050  0.11374350  0.52922700  1
  C  1091  1  0.29175450  0.11133850  0.50391500  1
  C  1092  1  0.26428550  0.09683350  0.48487800  1
  C  1093  1  0.24601600  0.08416800  0.49181200  1
  C  1094  1  0.25428450  0.08654700  0.51734850  1
  C  1099  1  0.28940200  0.15190650  0.57686150  1
  C  1100  1  0.23441750  0.07410500  0.52459450  1
  C  1113  1  0.17677700  0.29761750  0.30316950  1
  C  1114  1  0.18535850  0.29800850  0.32778600  1
  C  1115  1  0.19830800  0.28387100  0.33376400  1
  C  1116  1  0.20281100  0.26880900  0.31420000  1
  C  1117  1  0.19456300  0.26845750  0.28966050  1
  C  1118  1  0.18167350  0.28260800  0.28422250  1
  C  1121  1  0.21282350  0.25168300  0.31730450  1
  C  1122  1  0.19434350  0.22614250  0.31066600  1
  C  1123  1  0.20312600  0.20960400  0.31702000  1
  C  1124  1  0.23059350  0.21802450  0.32994300  1
  C  1125  1  0.24885600  0.24322650  0.33553750  1
  C  1126  1  0.24058200  0.26049850  0.32966650  1
  C  1131  1  0.20547750  0.28490950  0.35994800  1
  C  1132  1  0.26044300  0.28760900  0.33707900  1
  C  1145  1  0.99187900  0.37617500  0.19684500  1
  C  1146  1  0.96765150  0.36013400  0.17223150  1
  C  1147  1  0.94753350  0.36710100  0.16624950  1
  C  1148  1  0.95203650  0.39117300  0.18580850  1
  C  1149  1  0.97622600  0.40747250  0.21034250  1
  C  1150  1  0.99581850  0.40002450  0.21578400  1
  C  1153  1  0.93179900  0.39807050  0.18270250  1
  C  1154  1  0.91291450  0.38623900  0.18936250  1
  C  1155  1  0.89000700  0.38864250  0.18299650  1
  C  1156  1  0.88547300  0.40315150  0.17003950  1
  C  1157  1  0.90506550  0.41581500  0.16442850  1
  C  1158  1  0.92822350  0.41343800  0.17031250  1
  C  1163  1  0.92238400  0.34807700  0.14007000  1
  C  1164  1  0.94790550  0.42587900  0.16288050  1
  C  1177  1  0.50297250  0.20238050  0.88171900  1
  C  1178  1  0.52719950  0.20199600  0.88990450  1
  C  1179  1  0.54731600  0.21612900  0.91699100  1
  C  1180  1  0.54281100  0.23118050  0.93655950  1
  C  1181  1  0.51862200  0.23152800  0.92866800  1
  C  1182  1  0.49903200  0.21738100  0.90162900  1
  C  1185  1  0.56304750  0.24830850  0.96369900  1
  C  1186  1  0.58193600  0.27385300  0.97076100  1
  C  1187  1  0.60483300  0.29039300  0.99607800  1
  C  1188  1  0.60935250  0.28196800  0.01511950  1
  C  1189  1  0.58975500  0.25676000  0.00818000  1
  C  1190  1  0.56660800  0.23948850  0.98263850  1
  C  1195  1  0.57246500  0.21509850  0.92311850  1
  C  1196  1  0.54692000  0.21237200  0.97538600  1
  C  1209  1  0.69979850  0.38171200  0.50554650  1
  C  1210  1  0.69942700  0.38990900  0.52978000  1
  C  1211  1  0.71357400  0.41699650  0.54989450  1
  C  1212  1  0.72862850  0.43655650  0.54538300  1
  C  1213  1  0.72896300  0.42865450  0.52118650  1
  C  1214  1  0.71480300  0.40161350  0.50159850  1
  C  1217  1  0.74576450  0.46369450  0.56561300  1
  C  1218  1  0.77131000  0.47075050  0.58449850  1
  C  1219  1  0.78785400  0.49606450  0.60739850  1
  C  1220  1  0.77943300  0.51511000  0.61192600  1
  C  1221  1  0.75422850  0.50817900  0.59233050  1
  C  1222  1  0.73695050  0.48263800  0.56918050  1
  C  1227  1  0.71255600  0.42313400  0.57505100  1
  C  1228  1  0.70983650  0.47539500  0.54949850  1
  C  1241  1  0.87363650  0.69686950  0.99446000  1
  C  1242  1  0.85760000  0.67225550  0.97023350  1
  C  1243  1  0.86457100  0.66627350  0.95011850  1
  C  1244  1  0.88864350  0.68583450  0.95462400  1
  C  1245  1  0.90493750  0.71037150  0.97881200  1
  C  1246  1  0.89748450  0.71581300  0.99839950  1
  C  1249  1  0.89554550  0.68272600  0.93438850  1
  C  1250  1  0.88372650  0.68939500  0.91550750  1
  C  1251  1  0.88612700  0.68302150  0.89259950  1
  C  1252  1  0.90061850  0.67004300  0.88805850  1
  C  1253  1  0.91327750  0.66443050  0.90765300  1
  C  1254  1  0.91090300  0.67032200  0.93081200  1
  C  1259  1  0.84554950  0.64009400  0.92496950  1
  C  1260  1  0.92333350  0.66288550  0.95049300  1
  C  1273  1  0.79504950  0.80315800  0.17933650  1
  C  1274  1  0.79543250  0.82776950  0.18790800  1
  C  1275  1  0.78129350  0.83374950  0.20085400  1
  C  1276  1  0.76623450  0.81418800  0.20536150  1
  C  1277  1  0.76588900  0.78965300  0.19712500  1
  C  1278  1  0.78004400  0.78421450  0.18424050  1
  C  1281  1  0.74910050  0.81729250  0.21536400  1
  C  1282  1  0.72356150  0.81064400  0.19687550  1
  C  1283  1  0.70701850  0.81700450  0.20564700  1
  C  1284  1  0.71543400  0.82994250  0.23311150  1
  C  1285  1  0.74063600  0.83554450  0.25138450  1
  C  1286  1  0.75791100  0.82966650  0.24312150  1
  C  1291  1  0.78232350  0.85992850  0.20801100  1
  C  1292  1  0.78502150  0.83708900  0.26299150  1
  C  1305  1  0.62124500  0.11826300  0.32064600  1
  C  1306  1  0.63728350  0.11007150  0.31207300  1
  C  1307  1  0.63031100  0.08298450  0.29912350  1
  C  1308  1  0.60623550  0.06342000  0.29460750  1
  C  1309  1  0.58993950  0.07131650  0.30284600  1
  C  1310  1  0.59739400  0.09835650  0.31573750  1
  C  1313  1  0.59932900  0.03628150  0.28459950  1
  C  1314  1  0.61114350  0.02922050  0.30308900  1
  C  1315  1  0.60873650  0.00390800  0.29431850  1
  C  1316  1  0.59424000  0.98487250  0.26685150  1
  C  1317  1  0.58158950  0.99180800  0.24857650  1
  C  1318  1  0.58397050  0.01734500  0.25683850  1
  C  1323  1  0.64933200  0.07685200  0.29196800  1
  C  1324  1  0.57154450  0.02459450  0.23696800  1
  C  1337  1  0.19424500  0.49445650  0.87618350  1
  C  1338  1  0.16963450  0.47022600  0.86014550  1
  C  1339  1  0.16366000  0.45010650  0.86711050  1
  C  1340  1  0.18322500  0.45461000  0.89117900  1
  C  1341  1  0.20775900  0.47880150  0.90747550  1
  C  1342  1  0.21319300  0.49839450  0.90002950  1
  C  1345  1  0.18012600  0.43437200  0.89807500  1
  C  1346  1  0.18678900  0.41549150  0.88624150  1
  C  1347  1  0.18042550  0.39258150  0.88864100  1
  C  1348  1  0.16746700  0.38804100  0.90314700  1
  C  1349  1  0.16185400  0.40763050  0.91581450  1
  C  1350  1  0.16773650  0.43079100  0.91344250  1
  C  1355  1  0.13748250  0.42495500  0.84808850  1
  C  1356  1  0.16030350  0.45047000  0.92588750  1
  C  1369  1  0.87915300  0.00554100  0.70236300  1
  C  1370  1  0.88734350  0.02976800  0.70197650  1
  C  1371  1  0.91442850  0.04988650  0.71611500  1
  C  1372  1  0.93399400  0.04538450  0.73117550  1
  C  1373  1  0.92610150  0.02119650  0.73152400  1
  C  1374  1  0.89906200  0.00160450  0.71737250  1
  C  1377  1  0.96113250  0.06562100  0.74830750  1
  C  1378  1  0.96818650  0.08451250  0.77384900  1
  C  1379  1  0.99350300  0.10740950  0.79039250  1
  C  1380  1  0.01255350  0.11192600  0.78197750  1
  C  1381  1  0.00562050  0.09232650  0.75677400  1
  C  1382  1  0.98007900  0.06918000  0.73949700  1
  C  1387  1  0.92055700  0.07503350  0.71508150  1
  C  1388  1  0.97283500  0.04949050  0.71238550  1
  C  1401  1  0.61569350  0.82068400  0.62382250  1
  C  1402  1  0.60750700  0.81210900  0.63986300  1
  C  1403  1  0.58042300  0.79915400  0.63289300  1
  C  1404  1  0.56085150  0.79463600  0.60881850  1
  C  1405  1  0.56874150  0.80287500  0.59252050  1
  C  1406  1  0.59578150  0.81577050  0.59997100  1
  C  1409  1  0.53371400  0.78462000  0.60191600  1
  C  1410  1  0.52664900  0.80310150  0.61374250  1
  C  1411  1  0.50133750  0.79432000  0.61133650  1
  C  1412  1  0.48230400  0.76685000  0.59683000  1
  C  1413  1  0.48924400  0.74858450  0.58416750  1
  C  1414  1  0.51478100  0.75685950  0.58654850  1
  C  1419  1  0.57429700  0.79199350  0.65191450  1
  C  1420  1  0.52203550  0.73699800  0.57411050  1
  C  1433  1  0.30059150  0.67932850  0.79760900  1
  C  1434  1  0.32520350  0.68790400  0.79799350  1
  C  1435  1  0.33118350  0.70085750  0.78386000  1
  C  1436  1  0.31162150  0.70537000  0.76880750  1
  C  1437  1  0.28708550  0.69712650  0.76846100  1
  C  1438  1  0.28164700  0.68423300  0.78260800  1
  C  1441  1  0.31472850  0.71538850  0.75168500  1
  C  1442  1  0.30808300  0.69691100  0.72614100  1
  C  1443  1  0.31444100  0.70569650  0.70960550  1
  C  1444  1  0.32737650  0.73316450  0.71803500  1
  C  1445  1  0.33297600  0.75142600  0.74324000  1
  C  1446  1  0.32709900  0.74314750  0.76050750  1
  C  1451  1  0.35736500  0.70802300  0.78489300  1
  C  1452  1  0.33451800  0.76300600  0.78762300  1
  C  1465  1  0.67675150  0.87616800  0.38173450  1
  C  1466  1  0.68532400  0.86013300  0.38993100  1
  C  1467  1  0.69827700  0.86711050  0.41701750  1
  C  1468  1  0.70279600  0.89118950  0.43658050  1
  C  1469  1  0.69455700  0.90748350  0.42868050  1
  C  1470  1  0.68166200  0.90002350  0.40163850  1
  C  1473  1  0.71281500  0.89810500  0.46372200  1
  C  1474  1  0.69433300  0.88629700  0.47079500  1
  C  1475  1  0.70311550  0.88870400  0.49610750  1
  C  1476  1  0.73058600  0.90319300  0.51513200  1
  C  1477  1  0.74885250  0.91583950  0.50818500  1
  C  1478  1  0.74057750  0.91345750  0.48264800  1
  C  1483  1  0.70543250  0.84809100  0.42315350  1
  C  1484  1  0.76043850  0.92587700  0.47538550  1
  C  1497  1  0.81808400  0.70238000  0.69682800  1
  C  1498  1  0.80950850  0.70200100  0.67221850  1
  C  1499  1  0.79656750  0.71614800  0.66624950  1
  C  1500  1  0.79206950  0.73120800  0.68581950  1
  C  1501  1  0.80031100  0.73154850  0.71035250  1
  C  1502  1  0.81319150  0.71738800  0.71578050  1
  C  1505  1  0.78206950  0.74834550  0.68272600  1
  C  1506  1  0.80055800  0.77388550  0.68937250  1
  C  1507  1  0.79178650  0.79043100  0.68302050  1
  C  1508  1  0.76432200  0.78201850  0.67009150  1
  C  1509  1  0.74605000  0.75681950  0.66449350  1
  C  1510  1  0.75431250  0.73953950  0.67036200  1
  C  1515  1  0.78940350  0.71512250  0.64007200  1
  C  1516  1  0.73444150  0.71243000  0.66294250  1
  C  1529  1  0.00296850  0.62380700  0.80314950  1
  C  1530  1  0.02720050  0.63984600  0.82775850  1
  C  1531  1  0.04731700  0.63287650  0.83373150  1
  C  1532  1  0.04280650  0.60880200  0.81416850  1
  C  1533  1  0.01861250  0.59250550  0.78963700  1
  C  1534  1  0.99902350  0.59995650  0.78420400  1
  C  1537  1  0.06304150  0.60189950  0.81726800  1
  C  1538  1  0.08192050  0.61372500  0.81060150  1
  C  1539  1  0.10482800  0.61132200  0.81696600  1
  C  1540  1  0.10936750  0.59682050  0.82993200  1
  C  1541  1  0.08977600  0.58415750  0.83554450  1
  C  1542  1  0.06661900  0.58653550  0.82966350  1
  C  1547  1  0.07247100  0.65189750  0.85990750  1
  C  1548  1  0.04693950  0.57409950  0.83710000  1
  C  1561  1  0.49188900  0.79765350  0.11828150  1
  C  1562  1  0.46765550  0.79802550  0.11008300  1
  C  1563  1  0.44753800  0.78387350  0.08299550  1
  C  1564  1  0.45205100  0.76881650  0.06343750  1
  C  1565  1  0.47624700  0.76848250  0.07134050  1
  C  1566  1  0.49583600  0.78264700  0.09838100  1
  C  1569  1  0.43181950  0.75167800  0.03629950  1
  C  1570  1  0.41294100  0.72613000  0.02924500  1
  C  1571  1  0.39003750  0.70958250  0.00393200  1
  C  1572  1  0.38549950  0.71800500  0.98488950  1
  C  1573  1  0.40509000  0.74321100  0.99181700  1
  C  1574  1  0.42824400  0.76049000  0.01735500  1
  C  1579  1  0.42238150  0.78489100  0.07685750  1
  C  1580  1  0.44792100  0.78760550  0.02459550  1
  C  1593  1  0.29502050  0.61826400  0.49444950  1
  C  1594  1  0.29540100  0.61007100  0.47022000  1
  C  1595  1  0.28127100  0.58298500  0.45010900  1
  C  1596  1  0.26622450  0.56341900  0.45462050  1
  C  1597  1  0.26588100  0.57131500  0.47881100  1
  C  1598  1  0.28002450  0.59835600  0.49839550  1
  C  1601  1  0.24910300  0.53627850  0.43438950  1
  C  1602  1  0.22354750  0.52920700  0.41550850  1
  C  1603  1  0.20702000  0.50389600  0.39260200  1
  C  1604  1  0.21546600  0.48487250  0.38806350  1
  C  1605  1  0.24067750  0.49181550  0.40765600  1
  C  1606  1  0.25794050  0.51735350  0.43081500  1
  C  1611  1  0.28229550  0.57685300  0.42495550  1
  C  1612  1  0.28506300  0.52461300  0.45049600  1
  C  1625  1  0.12126800  0.30318000  0.00556300  1
  C  1626  1  0.13729950  0.32779000  0.02979250  1
  C  1627  1  0.13032750  0.33375850  0.04990800  1
  C  1628  1  0.10626050  0.31418900  0.04539950  1
  C  1629  1  0.08997100  0.28965500  0.02120800  1
  C  1630  1  0.09742400  0.28422750  0.00162050  1
  C  1633  1  0.09935200  0.31728300  0.06563000  1
  C  1634  1  0.11119250  0.31063700  0.08452350  1
  C  1635  1  0.10876750  0.31698500  0.10741750  1
  C  1636  1  0.09422650  0.32990850  0.11192900  1
  C  1637  1  0.08155450  0.33550750  0.09232700  1
  C  1638  1  0.08395550  0.32964250  0.06918300  1
  C  1643  1  0.14933900  0.35993850  0.07505850  1
  C  1644  1  0.07150500  0.33706100  0.04949200  1
  C  1657  1  0.19980750  0.19683350  0.82065600  1
  C  1658  1  0.19943250  0.17222650  0.81208500  1
  C  1659  1  0.21357700  0.16625650  0.79914250  1
  C  1660  1  0.22862950  0.18582250  0.79463400  1
  C  1661  1  0.22896450  0.21035300  0.80287050  1
  C  1662  1  0.21480800  0.21578350  0.81575450  1
  C  1665  1  0.24576400  0.18272600  0.78462900  1
  C  1666  1  0.27131050  0.18939000  0.80311750  1
  C  1667  1  0.28785150  0.18302750  0.79434500  1
  C  1668  1  0.27942400  0.17006600  0.76687800  1
  C  1669  1  0.25421750  0.16445350  0.74860500  1
  C  1670  1  0.23694400  0.17033400  0.75686900  1
  C  1675  1  0.21255750  0.14008150  0.79198500  1
  C  1676  1  0.20982800  0.16290050  0.73699950  1
  C  1689  1  0.37363400  0.88173500  0.67935700  1
  C  1690  1  0.35759250  0.88992600  0.68792250  1
  C  1691  1  0.36456100  0.91701200  0.70086900  1
  C  1692  1  0.38863600  0.93657750  0.70538550  1
  C  1693  1  0.40493650  0.92868300  0.69715450  1
  C  1694  1  0.39748650  0.90164350  0.68426800  1
  C  1697  1  0.39553950  0.96371500  0.71539050  1
  C  1698  1  0.38372250  0.97077450  0.69689900  1
  C  1699  1  0.38612800  0.99608700  0.70566900  1
  C  1700  1  0.40062100  0.01512200  0.73313500  1
  C  1701  1  0.41327600  0.00818950  0.75141150  1
  C  1702  1  0.41089750  0.98265400  0.74315050  1
  C  1707  1  0.34553500  0.92314050  0.70801750  1
  C  1708  1  0.42332600  0.97540650  0.76302250  1
  C  1721  1  0.80059100  0.50555050  0.12382350  1
  C  1722  1  0.82520350  0.52977750  0.13986200  1
  C  1723  1  0.83118150  0.54989550  0.13289400  1
  C  1724  1  0.81161950  0.54539150  0.10882500  1
  C  1725  1  0.78708400  0.52120300  0.09252900  1
  C  1726  1  0.78164650  0.50161250  0.09997800  1
  C  1729  1  0.81472500  0.56562800  0.10192300  1
  C  1730  1  0.80806750  0.58451500  0.11375450  1
  C  1731  1  0.81444150  0.60742450  0.11135400  1
  C  1732  1  0.82740500  0.61195850  0.09685050  1
  C  1733  1  0.83300700  0.59235850  0.08418050  1
  C  1734  1  0.82711600  0.56919900  0.08655600  1
  C  1739  1  0.85736250  0.57504550  0.15191500  1
  C  1740  1  0.83454150  0.54951250  0.07411300  1
  C  1753  1  0.11570450  0.99443450  0.29761100  1
  C  1754  1  0.10750900  0.97020500  0.29799400  1
  C  1755  1  0.08042100  0.95009450  0.28385950  1
  C  1756  1  0.06085750  0.95460550  0.26880800  1
  C  1757  1  0.06875850  0.97879600  0.26846250  1
  C  1758  1  0.09579900  0.99838050  0.28260950  1
  C  1761  1  0.03371850  0.93437850  0.25168100  1
  C  1762  1  0.02665250  0.91548400  0.22613550  1
  C  1763  1  0.00133200  0.89259250  0.20959550  1
  C  1764  1  0.98228800  0.88808500  0.21801900  1
  C  1765  1  0.98922950  0.90768450  0.24322500  1
  C  1766  1  0.01477650  0.93082550  0.26049900  1
  C  1771  1  0.07428350  0.92494400  0.28488950  1
  C  1772  1  0.02203050  0.95051700  0.28761550  1
  C  1785  1  0.37915750  0.17935500  0.37618350  1
  C  1786  1  0.38734400  0.18792450  0.36014150  1
  C  1787  1  0.41442950  0.20087950  0.36711200  1
  C  1788  1  0.43399900  0.20540050  0.39118850  1
  C  1789  1  0.42610650  0.19716550  0.40748800  1
  C  1790  1  0.39906750  0.18427000  0.40003650  1
  C  1793  1  0.46113750  0.21541350  0.39809400  1
  C  1794  1  0.46820250  0.19693350  0.38626500  1
  C  1795  1  0.49352100  0.20571450  0.38868650  1
  C  1796  1  0.51256200  0.23318100  0.40321400  1
  C  1797  1  0.50562100  0.25144700  0.41587400  1
  C  1798  1  0.48007700  0.24317400  0.41347600  1
  C  1803  1  0.42055750  0.20803500  0.34808950  1
  C  1804  1  0.47282400  0.26303650  0.42591450  1
  C  1817  1  0.69425600  0.32065250  0.20237450  1
  C  1818  1  0.66964450  0.31207950  0.20199200  1
  C  1819  1  0.66366800  0.29913450  0.21613250  1
  C  1820  1  0.68323000  0.29462550  0.23118950  1
  C  1821  1  0.70776450  0.30286400  0.23153250  1
  C  1822  1  0.71320150  0.31574950  0.21737900  1
  C  1825  1  0.68012650  0.28462000  0.24832150  1
  C  1826  1  0.68678400  0.30310800  0.27386600  1
  C  1827  1  0.68041650  0.29433650  0.29040400  1
  C  1828  1  0.66745700  0.26686950  0.28197750  1
  C  1829  1  0.66184850  0.24859600  0.25677250  1
  C  1830  1  0.66773550  0.25686150  0.23950200  1
  C  1835  1  0.63748950  0.29197650  0.21510500  1
  C  1836  1  0.66030750  0.23699200  0.21238950  1
  H  25  1  0.47662400  0.20848500  0.81897000  1
  H  26  1  0.45356900  0.19918800  0.77412200  1
  H  27  1  0.42247900  0.18202950  0.72587350  1
  H  28  1  0.38692950  0.16022800  0.68102050  1
  H  29  1  0.33747300  0.10707400  0.69599500  1
  H  30  1  0.40850400  0.14403950  0.80398950  1
  H  31  1  0.40245900  0.09965200  0.73668200  1
  H  32  1  0.34992800  0.03229200  0.73444500  1
  H  33  1  0.32590400  0.05418150  0.74462150  1
  H  34  1  0.36039300  0.16835000  0.76331900  1
  H  35  1  0.30698850  0.08385650  0.75538200  1
  H  36  1  0.29527950  0.11806000  0.76556950  1
  H  70  1  0.01823000  0.33977850  0.22930850  1
  H  71  1  0.04128600  0.31798400  0.24306500  1
  H  72  1  0.07237400  0.30081800  0.25698400  1
  H  73  1  0.10792700  0.29152400  0.27074100  1
  H  74  1  0.15737550  0.35594850  0.26703000  1
  H  75  1  0.08634250  0.39290850  0.23296700  1
  H  76  1  0.09236900  0.33162400  0.19461500  1
  H  77  1  0.14490150  0.38187650  0.17975700  1
  H  78  1  0.16894300  0.41609050  0.22567050  1
  H  79  1  0.13448050  0.40034900  0.30537950  1
  H  80  1  0.18788700  0.44577000  0.27426500  1
  H  81  1  0.19962200  0.46767700  0.32018500  1
  H  205  1  0.65766000  0.18101950  0.38949850  1
  H  206  1  0.67944900  0.22586650  0.42505350  1
  H  207  1  0.69660050  0.27411600  0.45614550  1
  H  208  1  0.70588700  0.31895900  0.47920200  1
  H  209  1  0.64144250  0.30397400  0.41107750  1
  H  210  1  0.60451100  0.19599450  0.34003850  1
  H  211  1  0.66575700  0.26330400  0.36295100  1
  H  212  1  0.61544900  0.26554000  0.29783700  1
  H  213  1  0.58125050  0.25535250  0.30955400  1
  H  214  1  0.59710200  0.23672350  0.40506950  1
  H  215  1  0.55160850  0.24464700  0.32851250  1
  H  216  1  0.52974100  0.23450500  0.35256500  1
  H  250  1  0.78893450  0.77069500  0.11048150  1
  H  251  1  0.79823250  0.75694250  0.07492900  1
  H  252  1  0.81540050  0.74302900  0.04384250  1
  H  253  1  0.83720850  0.72929300  0.02079450  1
  H  254  1  0.89037000  0.73299850  0.08892350  1
  H  255  1  0.85339400  0.76704000  0.15994900  1
  H  256  1  0.89773550  0.80540000  0.13704050  1
  H  257  1  0.96513300  0.82026950  0.20215350  1
  H  258  1  0.94328700  0.77434850  0.19043050  1
  H  259  1  0.82910350  0.69462850  0.09499300  1
  H  260  1  0.91362950  0.72575400  0.17153150  1
  H  261  1  0.87943550  0.67983950  0.14753600  1
  H  385  1  0.26815250  0.61047950  0.79152300  1
  H  386  1  0.25439450  0.57493300  0.80082550  1
  H  387  1  0.24044950  0.54384350  0.81798100  1
  H  388  1  0.22668600  0.52079300  0.83977700  1
  H  389  1  0.23038800  0.58892850  0.89292550  1
  H  390  1  0.26447250  0.65995100  0.85595950  1
  H  391  1  0.30280900  0.63702500  0.90036100  1
  H  392  1  0.31764000  0.70215300  0.96771800  1
  H  393  1  0.27172900  0.69044900  0.94582100  1
  H  394  1  0.19205300  0.59498150  0.83165150  1
  H  395  1  0.22314150  0.67154300  0.91614050  1
  H  396  1  0.17723000  0.64753000  0.88193400  1
  H  430  1  0.67845500  0.88954550  0.66022850  1
  H  431  1  0.72331000  0.92508700  0.68202500  1
  H  432  1  0.77156500  0.95616450  0.69918750  1
  H  433  1  0.81641050  0.97921100  0.70847450  1
  H  434  1  0.80142000  0.91107100  0.64404200  1
  H  435  1  0.69342100  0.84006400  0.60708800  1
  H  436  1  0.76074950  0.86298800  0.66837550  1
  H  437  1  0.76302700  0.79787900  0.61811600  1
  H  438  1  0.75284300  0.80957600  0.58390100  1
  H  439  1  0.73412900  0.90503250  0.59965750  1
  H  440  1  0.74209500  0.82848750  0.55422050  1
  H  441  1  0.73192900  0.85250750  0.53232050  1
  H  565  1  0.46512300  0.76553000  0.64752000  1
  H  566  1  0.44322550  0.75536200  0.67154050  1
  H  567  1  0.41354400  0.74461700  0.69045400  1
  H  568  1  0.37934800  0.73447300  0.70217700  1
  H  569  1  0.32907700  0.73672550  0.63705450  1
  H  570  1  0.39777000  0.76328400  0.59496800  1
  H  571  1  0.39034700  0.80398800  0.65996300  1
  H  572  1  0.33723750  0.81899550  0.61050200  1
  H  573  1  0.31543350  0.77414750  0.57494400  1
  H  574  1  0.35336100  0.69599100  0.58891600  1
  H  575  1  0.29825850  0.72589400  0.54384950  1
  H  576  1  0.28894450  0.68103900  0.52079250  1
  H  610  1  0.02972950  0.17975100  0.79783450  1
  H  611  1  0.05160250  0.22566700  0.80954450  1
  H  612  1  0.08126350  0.27425850  0.82845300  1
  H  613  1  0.11546700  0.32017050  0.85245250  1
  H  614  1  0.16577050  0.30537000  0.90500750  1
  H  615  1  0.09709950  0.19461250  0.86297300  1
  H  616  1  0.10452650  0.26705800  0.91109350  1
  H  617  1  0.15768250  0.27075400  0.97922050  1
  H  618  1  0.17946250  0.25697600  0.95615650  1
  H  619  1  0.14145000  0.23294150  0.84004050  1
  H  620  1  0.19662150  0.24304850  0.92506300  1
  H  621  1  0.20590400  0.22927500  0.88950300  1
  H  745  1  0.64493150  0.96770700  0.26554950  1
  H  746  1  0.66896200  0.94582000  0.25538500  1
  H  747  1  0.68789750  0.91615850  0.24466300  1
  H  748  1  0.69959000  0.88194450  0.23445350  1
  H  749  1  0.63445000  0.83164300  0.23666400  1
  H  750  1  0.59239550  0.90034600  0.26330750  1
  H  751  1  0.65738600  0.89289900  0.30400100  1
  H  752  1  0.60790550  0.83975450  0.31896300  1
  H  753  1  0.57235650  0.81797450  0.27411700  1
  H  754  1  0.58636000  0.85599400  0.19602500  1
  H  755  1  0.54127250  0.80082500  0.22586450  1
  H  756  1  0.51822200  0.79155600  0.18102700  1
  H  790  1  0.79529250  0.53227550  0.67977200  1
  H  791  1  0.80699150  0.55416100  0.72568350  1
  H  792  1  0.82589250  0.58383350  0.77427200  1
  H  793  1  0.84990900  0.61802950  0.82018850  1
  H  794  1  0.90244900  0.66833300  0.80537200  1
  H  795  1  0.86040700  0.59965450  0.69461750  1
  H  796  1  0.90850350  0.60707750  0.76703100  1
  H  797  1  0.97662400  0.66021750  0.77070950  1
  H  798  1  0.95357050  0.68201150  0.75695200  1
  H  799  1  0.83746700  0.64402850  0.73294550  1
  H  800  1  0.92248250  0.69917600  0.74302550  1
  H  801  1  0.88692700  0.70846550  0.72925750  1
  H  925  1  0.26297450  0.14752850  0.46769800  1
  H  926  1  0.25279750  0.17154050  0.44579200  1
  H  927  1  0.24204550  0.19044800  0.41610650  1
  H  928  1  0.23189750  0.20216400  0.38190550  1
  H  929  1  0.23415200  0.13703900  0.33163900  1
  H  930  1  0.26072700  0.09497100  0.40034700  1
  H  931  1  0.30141550  0.15995800  0.39290350  1
  H  932  1  0.31642150  0.11049400  0.33979550  1
  H  933  1  0.27157650  0.07493300  0.31800150  1
  H  934  1  0.19342950  0.08890600  0.35594250  1
  H  935  1  0.22332800  0.04383300  0.30084000  1
  H  936  1  0.17847900  0.02077300  0.29153600  1
  H  970  1  0.67718550  0.29782500  0.03230350  1
  H  971  1  0.72310150  0.30954100  0.05417950  1
  H  972  1  0.77169550  0.32845800  0.08384050  1
  H  973  1  0.81760850  0.35246550  0.11804100  1
  H  974  1  0.80279900  0.40501600  0.16834000  1
  H  975  1  0.69203600  0.36295900  0.09966600  1
  H  976  1  0.76446850  0.41108550  0.10708700  1
  H  977  1  0.76814750  0.47920550  0.16023200  1
  H  978  1  0.75438350  0.45614700  0.18202050  1
  H  979  1  0.73037900  0.34004200  0.14403000  1
  H  980  1  0.74046900  0.42505950  0.19918850  1
  H  981  1  0.72670500  0.38950250  0.20847750  1
  H  1087  1  0.29806000  0.07567400  0.55755400  1
  H  1088  1  0.32059900  0.08869300  0.60341500  1
  H  1095  1  0.32045000  0.12570450  0.54303750  1
  H  1096  1  0.30549600  0.12234050  0.50052250  1
  H  1097  1  0.22612450  0.07415800  0.47822650  1
  H  1098  1  0.31351750  0.15750600  0.62435550  1
  H  1102  1  0.23720300  0.08938500  0.54248000  1
  H  1103  1  0.23842950  0.05979550  0.52943500  1
  H  1104  1  0.20161400  0.07281950  0.50249750  1
  H  1106  1  0.27725150  0.14382350  0.55548900  1
  H  1107  1  0.27770400  0.15616550  0.58601350  1
  H  1108  1  0.30810800  0.18842600  0.58351700  1
  H  1110  1  0.34454550  0.15312700  0.65595250  1
  H  1112  1  0.23864500  0.10076000  0.45840500  1
  H  1119  1  0.19679400  0.25692650  0.27504750  1
  H  1120  1  0.17425350  0.28024700  0.26552850  1
  H  1127  1  0.17442650  0.22004000  0.30273050  1
  H  1128  1  0.18939300  0.19247400  0.31429400  1
  H  1129  1  0.26874750  0.24952500  0.34539150  1
  H  1130  1  0.18135300  0.30828200  0.34143100  1
  H  1134  1  0.25766900  0.30271150  0.34958550  1
  H  1135  1  0.25641100  0.28843400  0.31875200  1
  H  1136  1  0.29326350  0.29831200  0.36857550  1
  H  1138  1  0.21763150  0.27568900  0.36401350  1
  H  1139  1  0.21717600  0.30576050  0.37590150  1
  H  1140  1  0.18678400  0.27286550  0.37777250  1
  H  1142  1  0.15031500  0.30884200  0.30602100  1
  H  1144  1  0.25626550  0.21717650  0.35947400  1
  H  1151  1  0.97931000  0.42431900  0.22495200  1
  H  1152  1  0.01215500  0.41130600  0.23447800  1
  H  1159  1  0.91476750  0.37427700  0.19731850  1
  H  1160  1  0.87561550  0.37763850  0.18573900  1
  H  1161  1  0.90148650  0.42582600  0.15454850  1
  H  1162  1  0.96428150  0.34248000  0.15859250  1
  H  1166  1  0.95051050  0.41060200  0.15038550  1
  H  1167  1  0.96705900  0.44019000  0.18120200  1
  H  1168  1  0.92708650  0.42716550  0.13136700  1
  H  1170  1  0.90909550  0.35616050  0.13600000  1
  H  1171  1  0.92727700  0.34381350  0.12411250  1
  H  1172  1  0.89252200  0.31155950  0.12226250  1
  H  1174  1  0.00025350  0.34686500  0.19401150  1
  H  1176  1  0.85506750  0.39926650  0.14049400  1
  H  1183  1  0.51553800  0.24305250  0.94243250  1
  H  1184  1  0.48269700  0.21973950  0.89657350  1
  H  1191  1  0.58009300  0.27995950  0.95694850  1
  H  1192  1  0.61923000  0.30752800  0.99947400  1
  H  1193  1  0.59332100  0.25045800  0.02176900  1
  H  1194  1  0.53057250  0.19172800  0.87562350  1
  H  1198  1  0.54432150  0.19727400  0.95750550  1
  H  1199  1  0.52776600  0.21153950  0.97053750  1
  H  1200  1  0.56772900  0.20167300  0.99749400  1
  H  1202  1  0.58575300  0.22431450  0.94449050  1
  H  1203  1  0.56757200  0.19424800  0.91395900  1
  H  1204  1  0.60233050  0.22715650  0.91646800  1
  H  1206  1  0.49459550  0.19116700  0.84403350  1
  H  1208  1  0.63973950  0.28282700  0.04164650  1
  H  1215  1  0.74048750  0.44241300  0.51809750  1
  H  1216  1  0.71715150  0.39654900  0.48525850  1
  H  1223  1  0.77741100  0.45693350  0.58265050  1
  H  1224  1  0.80498800  0.49945550  0.62179250  1
  H  1225  1  0.74793100  0.52177100  0.59590400  1
  H  1226  1  0.68915750  0.37563300  0.53315750  1
  H  1230  1  0.69473750  0.45751700  0.54690250  1
  H  1231  1  0.70900000  0.47054550  0.53034350  1
  H  1232  1  0.69914750  0.49750950  0.57031700  1
  H  1234  1  0.72178300  0.44450850  0.58833850  1
  H  1235  1  0.69170650  0.41398600  0.57016550  1
  H  1236  1  0.72461450  0.41648350  0.60491600  1
  H  1238  1  0.68857350  0.34402600  0.49717450  1
  H  1240  1  0.78029000  0.54162900  0.64231700  1
  H  1247  1  0.92178400  0.72498200  0.98189600  1
  H  1248  1  0.90876100  0.73450750  0.01473350  1
  H  1255  1  0.87177300  0.69736200  0.91736300  1
  H  1256  1  0.87513100  0.68577000  0.87820900  1
  H  1257  1  0.92327900  0.65454000  0.90407100  1
  H  1258  1  0.83994650  0.65861250  0.96686100  1
  H  1262  1  0.90805200  0.65039600  0.95309800  1
  H  1263  1  0.93764950  0.68120450  0.96964700  1
  H  1264  1  0.92460450  0.63136000  0.92967150  1
  H  1266  1  0.85363450  0.63602500  0.91168250  1
  H  1267  1  0.84128800  0.62413650  0.92986250  1
  H  1268  1  0.80903300  0.62228300  0.89510400  1
  H  1270  1  0.84432350  0.69402050  0.00283200  1
  H  1272  1  0.89667200  0.64046750  0.85765250  1
  H  1279  1  0.75436050  0.77504200  0.19936050  1
  H  1280  1  0.77768700  0.76552250  0.17682650  1
  H  1287  1  0.71746250  0.80270050  0.17695900  1
  H  1288  1  0.68988900  0.81427250  0.19190450  1
  H  1289  1  0.74693200  0.84541000  0.27127500  1
  H  1290  1  0.80570500  0.84141200  0.18389800  1
  H  1294  1  0.80012600  0.84959050  0.26021750  1
  H  1295  1  0.78585100  0.81876700  0.25897400  1
  H  1296  1  0.79571650  0.86859450  0.29580000  1
  H  1298  1  0.77310450  0.86399850  0.22016400  1
  H  1299  1  0.80317400  0.87588550  0.21970750  1
  H  1300  1  0.77027300  0.87774100  0.18930400  1
  H  1302  1  0.80626350  0.80599500  0.15286550  1
  H  1304  1  0.71457100  0.85946950  0.25879250  1
  H  1311  1  0.57308950  0.05755450  0.30060700  1
  H  1312  1  0.58611650  0.10341700  0.32315150  1
  H  1319  1  0.62309900  0.04303100  0.32301000  1
  H  1320  1  0.61973150  0.00051450  0.30806500  1
  H  1321  1  0.57158750  0.97822350  0.22868500  1
  H  1322  1  0.65494050  0.12435000  0.31608850  1
  H  1326  1  0.58683200  0.04247850  0.23976050  1
  H  1327  1  0.55723150  0.02943800  0.24097050  1
  H  1328  1  0.57027200  0.00249500  0.20417500  1
  H  1330  1  0.64124550  0.05547950  0.27981500  1
  H  1331  1  0.65359800  0.08600650  0.28027450  1
  H  1332  1  0.68584650  0.08350000  0.31067950  1
  H  1334  1  0.65055950  0.15594650  0.34711800  1
  H  1336  1  0.59814600  0.95836350  0.24120250  1
  H  1343  1  0.22237350  0.48188500  0.92431950  1
  H  1344  1  0.23188400  0.51473050  0.91130450  1
  H  1351  1  0.19474350  0.41734850  0.87427900  1
  H  1352  1  0.18316650  0.37819100  0.87763150  1
  H  1353  1  0.15197500  0.40404750  0.92582450  1
  H  1354  1  0.15598900  0.46685450  0.84249350  1
  H  1358  1  0.14780500  0.45307500  0.91061200  1
  H  1359  1  0.17862300  0.46962350  0.94019950  1
  H  1360  1  0.12879150  0.42964450  0.92717200  1
  H  1362  1  0.13341850  0.41166400  0.85617050  1
  H  1363  1  0.12152350  0.42984450  0.84383100  1
  H  1364  1  0.11967300  0.39509450  0.81156850  1
  H  1366  1  0.19139550  0.50283200  0.84687250  1
  H  1368  1  0.13792200  0.35763100  0.89925700  1
  H  1375  1  0.93986350  0.01811350  0.74305500  1
  H  1376  1  0.89400450  0.98527050  0.71973300  1
  H  1383  1  0.95436850  0.08267050  0.77994800  1
  H  1384  1  0.99689450  0.12180750  0.80752500  1
  H  1385  1  0.01921600  0.09589200  0.75048000  1
  H  1386  1  0.87306200  0.03313900  0.69170300  1
  H  1390  1  0.95495900  0.04689250  0.69728350  1
  H  1391  1  0.96798250  0.03033750  0.71155400  1
  H  1392  1  0.99495300  0.07030000  0.70169300  1
  H  1394  1  0.94193100  0.08832200  0.72430300  1
  H  1395  1  0.91140500  0.07013850  0.69423050  1
  H  1396  1  0.91390300  0.10489850  0.72712950  1
  H  1398  1  0.84146850  0.99716700  0.69114350  1
  H  1400  1  0.03909150  0.14231050  0.78284500  1
  H  1407  1  0.55497800  0.80063450  0.57567250  1
  H  1408  1  0.60083850  0.82318500  0.58869250  1
  H  1415  1  0.54045750  0.82302200  0.62570450  1
  H  1416  1  0.49794000  0.80805950  0.62233650  1
  H  1417  1  0.47566200  0.72869250  0.57415650  1
  H  1418  1  0.62179100  0.81612550  0.65751750  1
  H  1422  1  0.53992200  0.73978750  0.58938950  1
  H  1423  1  0.52687400  0.74101200  0.55979900  1
  H  1424  1  0.49994250  0.70419200  0.57282250  1
  H  1426  1  0.55292400  0.77983500  0.64382900  1
  H  1427  1  0.58345750  0.78030350  0.65617900  1
  H  1428  1  0.58094600  0.81069900  0.68843100  1
  H  1430  1  0.65337650  0.84716250  0.65313400  1
  H  1432  1  0.45583350  0.74120450  0.60075500  1
  H  1439  1  0.27247500  0.69936450  0.75693750  1
  H  1440  1  0.26295500  0.67681700  0.78025200  1
  H  1447  1  0.30014000  0.67699200  0.72003300  1
  H  1448  1  0.31171000  0.69196300  0.69247200  1
  H  1449  1  0.34283800  0.77131850  0.74954450  1
  H  1450  1  0.33884600  0.68389150  0.80826050  1
  H  1454  1  0.34702050  0.76022600  0.80272050  1
  H  1455  1  0.31619400  0.75897850  0.78845050  1
  H  1456  1  0.36602100  0.79582350  0.79833050  1
  H  1458  1  0.36143250  0.72018050  0.77567700  1
  H  1459  1  0.37332050  0.71971550  0.80574300  1
  H  1460  1  0.37517900  0.68932300  0.77283600  1
  H  1462  1  0.30343550  0.65285900  0.80882550  1
  H  1464  1  0.35691800  0.75883150  0.71719450  1
  H  1471  1  0.69679800  0.92433600  0.44244100  1
  H  1472  1  0.67424850  0.91130000  0.39657450  1
  H  1479  1  0.67441000  0.87434400  0.45699200  1
  H  1480  1  0.68937450  0.87771400  0.49950950  1
  H  1481  1  0.76874500  0.92583750  0.52176250  1
  H  1482  1  0.68130750  0.84247400  0.37565250  1
  H  1486  1  0.75763850  0.91058800  0.45749750  1
  H  1487  1  0.75643650  0.94019250  0.47054600  1
  H  1488  1  0.79323500  0.92714600  0.49747100  1
  H  1490  1  0.71758850  0.85618100  0.44452850  1
  H  1491  1  0.71712550  0.84382200  0.41399850  1
  H  1492  1  0.68672450  0.81157950  0.41651300  1
  H  1494  1  0.65028000  0.84685150  0.34405150  1
  H  1496  1  0.75623050  0.89926250  0.54160600  1
  H  1503  1  0.79808350  0.74307950  0.72496900  1
  H  1504  1  0.82060900  0.71974100  0.73447100  1
  H  1511  1  0.82047250  0.77997950  0.69730700  1
  H  1512  1  0.80552700  0.80755950  0.68574850  1
  H  1513  1  0.72616000  0.75052650  0.65463550  1
  H  1514  1  0.81351100  0.69172700  0.65856900  1
  H  1518  1  0.73721050  0.69732550  0.65043400  1
  H  1519  1  0.73846700  0.71160050  0.68126550  1
  H  1520  1  0.70162900  0.70174250  0.63144850  1
  H  1522  1  0.77725500  0.72434750  0.63601150  1
  H  1523  1  0.77770000  0.69427200  0.62411200  1
  H  1524  1  0.80810250  0.72717200  0.62225350  1
  H  1526  1  0.84454400  0.69115250  0.69397250  1
  H  1528  1  0.73864750  0.78287650  0.64056300  1
  H  1535  1  0.01552500  0.57565800  0.77502500  1
  H  1536  1  0.98268400  0.58867800  0.76551200  1
  H  1543  1  0.08006550  0.62568450  0.80264200  1
  H  1544  1  0.11921800  0.62232400  0.81422100  1
  H  1545  1  0.09335650  0.57415050  0.84542800  1
  H  1546  1  0.03057550  0.65750000  0.84140150  1
  H  1550  1  0.04433700  0.58938000  0.84959600  1
  H  1551  1  0.02778450  0.55978550  0.81878100  1
  H  1552  1  0.06776300  0.57281850  0.86861550  1
  H  1554  1  0.08575900  0.64381250  0.86397150  1
  H  1555  1  0.06758400  0.65616150  0.87586950  1
  H  1556  1  0.10233400  0.68841350  0.87771150  1
  H  1558  1  0.99459650  0.65312000  0.80599650  1
  H  1560  1  0.13977350  0.60073350  0.85949100  1
  H  1567  1  0.47933700  0.75695650  0.05758450  1
  H  1568  1  0.51217550  0.78029850  0.10344700  1
  H  1575  1  0.41479500  0.72002800  0.04306100  1
  H  1576  1  0.37565000  0.69244500  0.00054200  1
  H  1577  1  0.40151050  0.74950800  0.97822350  1
  H  1578  1  0.46427650  0.80829700  0.12435850  1
  H  1582  1  0.45051900  0.80270500  0.04247400  1
  H  1583  1  0.46707800  0.78844500  0.02944300  1
  H  1584  1  0.42709600  0.79829100  0.00248100  1
  H  1586  1  0.40909300  0.77565800  0.05548300  1
  H  1587  1  0.42726550  0.80573800  0.08599950  1
  H  1588  1  0.39252000  0.77283700  0.08351400  1
  H  1590  1  0.50025950  0.80888200  0.15596750  1
  H  1592  1  0.35510650  0.71715750  0.95840300  1
  H  1599  1  0.25436050  0.55755200  0.48189950  1
  H  1600  1  0.27767000  0.60341550  0.51473250  1
  H  1607  1  0.21743000  0.54301050  0.41736150  1
  H  1608  1  0.18987650  0.50049600  0.37821050  1
  H  1609  1  0.24699450  0.47824050  0.40407700  1
  H  1610  1  0.30566550  0.62435100  0.46684250  1
  H  1614  1  0.30015050  0.54250200  0.45309750  1
  H  1615  1  0.28589850  0.52945000  0.46965050  1
  H  1616  1  0.29577500  0.50253000  0.42967700  1
  H  1618  1  0.27308000  0.55548150  0.41167150  1
  H  1619  1  0.30314400  0.58601200  0.42984600  1
  H  1620  1  0.27023050  0.58349850  0.39508700  1
  H  1622  1  0.30623350  0.65594750  0.50281800  1
  H  1624  1  0.21463450  0.45839750  0.35765700  1
  H  1631  1  0.07312650  0.27503700  0.01812050  1
  H  1632  1  0.08615100  0.26553500  0.98528200  1
  H  1639  1  0.12317400  0.30270300  0.08268500  1
  H  1640  1  0.11977900  0.31425600  0.12181800  1
  H  1641  1  0.07151900  0.34536200  0.09588900  1
  H  1642  1  0.15495100  0.34144050  0.03316750  1
  H  1646  1  0.08678350  0.34957300  0.04689750  1
  H  1647  1  0.05721000  0.31873800  0.03033700  1
  H  1648  1  0.07018000  0.36855350  0.07029550  1
  H  1650  1  0.14125050  0.36399700  0.08834450  1
  H  1651  1  0.15359450  0.37589750  0.07016800  1
  H  1652  1  0.18585600  0.37775850  0.10492650  1
  H  1654  1  0.15058100  0.30603650  0.99718950  1
  H  1656  1  0.09807400  0.35943300  0.14231400  1
  H  1663  1  0.24048950  0.22496750  0.80063600  1
  H  1664  1  0.21715850  0.23447250  0.82316800  1
  H  1671  1  0.27741550  0.19734550  0.82303600  1
  H  1672  1  0.30498650  0.18576950  0.80808800  1
  H  1673  1  0.24791450  0.15457400  0.72871450  1
  H  1674  1  0.18916550  0.15858200  0.81609450  1
  H  1678  1  0.19473050  0.15040100  0.73978350  1
  H  1679  1  0.20899050  0.18121900  0.74100950  1
  H  1680  1  0.19913250  0.13138700  0.70419850  1
  H  1682  1  0.22178250  0.13602150  0.77983700  1
  H  1683  1  0.19170900  0.12411950  0.78028550  1
  H  1684  1  0.22461600  0.12227500  0.81069400  1
  H  1686  1  0.18858850  0.19398400  0.84712150  1
  H  1688  1  0.28026750  0.14050950  0.74122600  1
  H  1695  1  0.42178650  0.94244500  0.69939550  1
  H  1696  1  0.40876650  0.89658350  0.67685800  1
  H  1703  1  0.37176750  0.95696250  0.67697800  1
  H  1704  1  0.37513450  0.99948000  0.69192050  1
  H  1705  1  0.42328100  0.02177600  0.77130100  1
  H  1706  1  0.33993450  0.87564400  0.68390650  1
  H  1710  1  0.40804150  0.95752300  0.76023250  1
  H  1711  1  0.43764050  0.97056500  0.75902150  1
  H  1712  1  0.42459650  0.99750600  0.79581450  1
  H  1714  1  0.35361850  0.94451350  0.72016700  1
  H  1715  1  0.34126800  0.91398800  0.71971200  1
  H  1716  1  0.30901900  0.91648600  0.68929900  1
  H  1718  1  0.34432050  0.84405050  0.65288600  1
  H  1720  1  0.39669950  0.04159800  0.75876750  1
  H  1727  1  0.77247200  0.51811950  0.07568350  1
  H  1728  1  0.76295250  0.48527600  0.08870050  1
  H  1735  1  0.80011050  0.58266450  0.12571700  1
  H  1736  1  0.81170350  0.62181900  0.12235950  1
  H  1737  1  0.84288900  0.59593500  0.07417200  1
  H  1738  1  0.83884750  0.53315000  0.15751450  1
  H  1742  1  0.84703550  0.54690500  0.08939050  1
  H  1743  1  0.81621850  0.53036150  0.05980200  1
  H  1744  1  0.86605800  0.57032350  0.07282550  1
  H  1746  1  0.86142950  0.58833450  0.14383100  1
  H  1747  1  0.87331850  0.57015250  0.15617400  1
  H  1748  1  0.87517450  0.60490850  0.18843300  1
  H  1750  1  0.80343500  0.49717500  0.15313500  1
  H  1752  1  0.85696550  0.64235700  0.10075850  1
  H  1759  1  0.05499800  0.98188500  0.25693800  1
  H  1760  1  0.10086100  0.01471650  0.28025350  1
  H  1767  1  0.04046700  0.91732050  0.22003150  1
  H  1768  1  0.99793350  0.87819300  0.19246050  1
  H  1769  1  0.97563850  0.90412400  0.24952550  1
  H  1770  1  0.12178700  0.96682950  0.30826150  1
  H  1774  1  0.03990700  0.95310850  0.30271250  1
  H  1775  1  0.02688900  0.96967200  0.28844900  1
  H  1776  1  0.99991350  0.92971400  0.29831150  1
  H  1778  1  0.05291100  0.91166300  0.27567300  1
  H  1779  1  0.08344150  0.92983750  0.30574000  1
  H  1780  1  0.08092350  0.89507050  0.27283000  1
  H  1782  1  0.15338800  0.00280300  0.30882900  1
  H  1784  1  0.95575150  0.85769800  0.21715750  1
  H  1791  1  0.43987200  0.19940850  0.42433950  1
  H  1792  1  0.39401100  0.17685900  0.41131700  1
  H  1799  1  0.45438950  0.17701400  0.37429150  1
  H  1800  1  0.49691750  0.19197700  0.37768450  1
  H  1801  1  0.51921050  0.27133850  0.42590000  1
  H  1802  1  0.37306150  0.18390600  0.34248450  1
  H  1806  1  0.45494300  0.26025250  0.41063050  1
  H  1807  1  0.46797350  0.25901600  0.44021650  1
  H  1808  1  0.49493150  0.29584600  0.42721750  1
  H  1810  1  0.44192900  0.22019550  0.35617750  1
  H  1811  1  0.41139500  0.21972350  0.34382050  1
  H  1812  1  0.41391300  0.18932550  0.31157650  1
  H  1814  1  0.34147350  0.15287500  0.34687150  1
  H  1816  1  0.53909050  0.25885300  0.39935550  1
  H  1823  1  0.72237650  0.30062900  0.24306050  1
  H  1824  1  0.73189350  0.32316350  0.21973400  1
  H  1831  1  0.69473950  0.32302700  0.27997050  1
  H  1832  1  0.68315450  0.30808000  0.30753750  1
  H  1833  1  0.65196800  0.22870500  0.25047000  1
  H  1834  1  0.65600250  0.31609000  0.19172250  1
  H  1838  1  0.64781200  0.23977500  0.19728900  1
  H  1839  1  0.67862900  0.24100300  0.21155800  1
  H  1840  1  0.62879200  0.20418950  0.20168850  1
  H  1842  1  0.63342300  0.27982700  0.22432800  1
  H  1843  1  0.62153150  0.28028000  0.19425650  1
  H  1844  1  0.61967950  0.31068500  0.22715750  1
  H  1846  1  0.69141150  0.34711800  0.19115450  1
  H  1848  1  0.63790900  0.24120600  0.28283200  1
  N  1109  1  0.33401900  0.13373000  0.64499200  1
  N  1111  1  0.25469600  0.09922850  0.46266350  1
  N  1141  1  0.16084100  0.30841000  0.29715000  1
  N  1143  1  0.24019950  0.20539050  0.34190300  1
  N  1173  1  0.00869200  0.36626200  0.20287200  1
  N  1175  1  0.86086400  0.40075500  0.15806000  1
  N  1205  1  0.48615800  0.19159400  0.85499200  1
  N  1207  1  0.63395200  0.29460650  0.03735050  1
  N  1237  1  0.68900100  0.35498200  0.48873400  1
  N  1239  1  0.79207050  0.53733450  0.63653100  1
  N  1269  1  0.86372050  0.70289400  0.01127150  1
  N  1271  1  0.89821650  0.65805500  0.86344550  1
  N  1301  1  0.80583900  0.79713200  0.16339900  1
  N  1303  1  0.70280450  0.84191450  0.24270300  1
  N  1333  1  0.63116300  0.14499100  0.33658500  1
  N  1335  1  0.59664000  0.96266050  0.25726850  1
  N  1365  1  0.20026450  0.51127000  0.86626950  1
  N  1367  1  0.15548600  0.36342850  0.90074350  1
  N  1397  1  0.85242550  0.98872850  0.69157300  1
  N  1399  1  0.03478750  0.13652400  0.79462050  1
  N  1429  1  0.64242100  0.83662800  0.63373800  1
  N  1431  1  0.46008800  0.75725450  0.59922150  1
  N  1461  1  0.29456900  0.66338950  0.80839850  1
  N  1463  1  0.33934300  0.74277150  0.70540550  1
  N  1493  1  0.66081450  0.86624900  0.35500550  1
  N  1495  1  0.74017750  0.90079200  0.53734150  1
  N  1525  1  0.83401550  0.69158150  0.70284100  1
  N  1527  1  0.75472800  0.79465300  0.65812600  1
  N  1557  1  0.98615650  0.63372350  0.79712900  1
  N  1559  1  0.13398000  0.59922150  0.84191550  1
  N  1589  1  0.50870050  0.80845400  0.14501150  1
  N  1591  1  0.36088950  0.70536250  0.96266900  1
  N  1621  1  0.30580650  0.64499150  0.51125900  1
  N  1623  1  0.20284800  0.46266350  0.36345150  1
  N  1653  1  0.13118450  0.29716800  0.98874950  1
  N  1655  1  0.09659150  0.34187050  0.13652700  1
  N  1685  1  0.18901250  0.20285000  0.83659050  1
  N  1687  1  0.29205100  0.15808400  0.75729100  1
  N  1717  1  0.36371750  0.85500750  0.66341800  1
  N  1719  1  0.39822650  0.03733900  0.74271150  1
  N  1749  1  0.79456950  0.48873650  0.13373800  1
  N  1751  1  0.83939350  0.63656850  0.09925100  1
  N  1781  1  0.14243300  0.01124400  0.30840000  1
  N  1783  1  0.96005000  0.86348900  0.20538200  1
  N  1813  1  0.35242900  0.16341000  0.36626800  1
  N  1815  1  0.53479500  0.24278050  0.40084950  1
  N  1845  1  0.70027800  0.33658850  0.19158350  1
  N  1847  1  0.65547300  0.25728200  0.29460200  1
  O  42  1  0.44528900  0.17600450  0.85436650  1
  O  43  1  0.31906950  0.09348550  0.64561900  1
  O  44  1  0.39897100  0.05018050  0.71055450  1
  O  45  1  0.33704950  0.19098750  0.78945500  1
  O  87  1  0.04956150  0.40649900  0.22814150  1
  O  88  1  0.17578700  0.32398100  0.27185200  1
  O  89  1  0.09593300  0.30898750  0.14864150  1
  O  90  1  0.15784750  0.44978550  0.35137100  1
  O  222  1  0.59092500  0.14562350  0.32162250  1
  O  223  1  0.67340650  0.35435050  0.44786200  1
  O  224  1  0.68837700  0.28945900  0.33960300  1
  O  225  1  0.54758850  0.21057800  0.40154850  1
  O  267  1  0.82142750  0.77185300  0.17836250  1
  O  268  1  0.90396450  0.72819300  0.05214350  1
  O  269  1  0.94726550  0.85139300  0.16038650  1
  O  270  1  0.80649000  0.64866550  0.09850550  1
  O  402  1  0.26929450  0.67835700  0.82399450  1
  O  403  1  0.22555950  0.55213950  0.90651400  1
  O  404  1  0.34878650  0.66036550  0.94984400  1
  O  405  1  0.14607250  0.59848100  0.80900850  1
  O  447  1  0.64305450  0.82165800  0.59350150  1
  O  448  1  0.85180000  0.94785800  0.67600400  1
  O  449  1  0.78695150  0.83965250  0.69100900  1
  O  450  1  0.70805500  0.90158850  0.55021950  1
  O  582  1  0.44723000  0.78939650  0.59844750  1
  O  583  1  0.30643800  0.71058400  0.66040800  1
  O  584  1  0.40395600  0.85437100  0.67837600  1
  O  585  1  0.32140350  0.64562650  0.55213100  1
  O  627  1  0.04755550  0.14863150  0.83961500  1
  O  628  1  0.18839300  0.35133650  0.90146150  1
  O  629  1  0.09094150  0.27188300  0.94788150  1
  O  630  1  0.17341250  0.22812400  0.82162750  1
  O  762  1  0.59587500  0.94982250  0.28942650  1
  O  763  1  0.65780350  0.80903200  0.21048350  1
  O  764  1  0.67578750  0.90648550  0.35436900  1
  O  765  1  0.54957500  0.82403900  0.14564700  1
  O  807  1  0.83706800  0.55012650  0.64864750  1
  O  808  1  0.89900600  0.69097650  0.85137050  1
  O  809  1  0.94528300  0.59348500  0.77185100  1
  O  810  1  0.81905400  0.67598900  0.72811900  1
  O  942  1  0.28684500  0.09845950  0.44981350  1
  O  943  1  0.20798900  0.16039500  0.30900700  1
  O  944  1  0.35179650  0.17837600  0.40650750  1
  O  945  1  0.14306750  0.05211550  0.32399400  1
  O  987  1  0.64605300  0.33960300  0.05014600  1
  O  988  1  0.84876950  0.40147800  0.19096550  1
  O  989  1  0.76928700  0.44786800  0.09349600  1
  O  990  1  0.72556150  0.32163050  0.17599500  1
  O  1101  1  0.20683400  0.05978550  0.50451550  1
  O  1105  1  0.31330900  0.17600900  0.58729900  1
  O  1133  1  0.28802850  0.29510950  0.35031900  1
  O  1137  1  0.18157550  0.27144150  0.36015300  1
  O  1165  1  0.94214150  0.44020050  0.14961900  1
  O  1169  1  0.90872000  0.32397750  0.13987950  1
  O  1197  1  0.55267250  0.20486750  0.99546800  1
  O  1201  1  0.58613300  0.22857550  0.91268650  1
  O  1229  1  0.70234000  0.49548250  0.55525850  1
  O  1233  1  0.72602600  0.41269600  0.58871400  1
  O  1261  1  0.93764600  0.64961200  0.94472700  1
  O  1265  1  0.82144950  0.63989950  0.91130200  1
  O  1293  1  0.79251650  0.85034100  0.29057550  1
  O  1297  1  0.76885400  0.86012300  0.18410300  1
  O  1325  1  0.55723150  0.00451400  0.20938350  1
  O  1329  1  0.67343000  0.08728500  0.31587800  1
  O  1357  1  0.14704250  0.44470000  0.94020850  1
  O  1361  1  0.13728900  0.41129400  0.82398600  1
  O  1389  1  0.99292350  0.05524300  0.70488950  1
  O  1393  1  0.91012050  0.08870050  0.72855000  1
  O  1421  1  0.50195800  0.70941050  0.55978750  1
  O  1425  1  0.58472650  0.81590000  0.67601350  1
  O  1453  1  0.34776650  0.79059350  0.79513000  1
  O  1457  1  0.35756100  0.68411800  0.77141600  1
  O  1485  1  0.78802700  0.94018800  0.49545700  1
  O  1489  1  0.68152400  0.82399500  0.41272600  1
  O  1517  1  0.70685950  0.70494050  0.64970200  1
  O  1521  1  0.81330650  0.72858750  0.63987000  1
  O  1549  1  0.05270700  0.55978200  0.85036600  1
  O  1553  1  0.08613200  0.67599650  0.86009650  1
  O  1581  1  0.44215500  0.79509850  0.00450550  1
  O  1585  1  0.40872350  0.77142650  0.08730200  1
  O  1613  1  0.29258000  0.50454250  0.44473350  1
  O  1617  1  0.26881450  0.58728150  0.41128700  1
  O  1645  1  0.05715950  0.35029900  0.05523850  1
  O  1649  1  0.17344650  0.36014350  0.08872800  1
  O  1677  1  0.20232600  0.14963800  0.70941500  1
  O  1681  1  0.22602900  0.13989000  0.81589400  1
  O  1709  1  0.43763900  0.99548950  0.79060750  1
  O  1713  1  0.32143900  0.91270350  0.68410450  1
  O  1741  1  0.84780400  0.55527250  0.05979050  1
  O  1745  1  0.85755750  0.58871100  0.17601750  1
  O  1773  1  0.00194700  0.94477300  0.29511800  1
  O  1777  1  0.08471150  0.91126950  0.27141300  1
  O  1805  1  0.49290400  0.29062150  0.44024550  1
  O  1809  1  0.41013100  0.18412600  0.32399400  1
  O  1837  1  0.64704550  0.20940700  0.20488850  1
  O  1841  1  0.63729650  0.31588600  0.22857550  1
