# generated using pymatgen
data_H9C14N2O3
_symmetry_space_group_name_H-M   'P 1'
_cell_length_a   58.70210000
_cell_length_b   65.03230000
_cell_length_c   65.23830000
_cell_angle_alpha   90.00000000
_cell_angle_beta   90.00000000
_cell_angle_gamma   90.00000000
_symmetry_Int_Tables_number   1
_chemical_formula_structural   H9C14N2O3
_chemical_formula_sum   'H576 C896 N128 O192'
_cell_volume   249049.33557225
_cell_formula_units_Z   64
loop_
 _symmetry_equiv_pos_site_id
 _symmetry_equiv_pos_as_xyz
  1  'x, y, z'
loop_
 _atom_site_type_symbol
 _atom_site_label
 _atom_site_symmetry_multiplicity
 _atom_site_fract_x
 _atom_site_fract_y
 _atom_site_fract_z
 _atom_site_occupancy
  H  7  1  0.99453600  0.11189300  0.58668100  1
  H  16  1  0.04653800  0.12613200  0.62705300  1
  H  19  1  0.00884200  0.14354300  0.65035400  1
  H  20  1  0.97447100  0.09417600  0.62120300  1
  H  21  1  0.97292200  0.19008000  0.58691100  1
  H  22  1  0.05996800  0.05315800  0.63622600  1
  H  33  1  0.49458200  0.87593200  0.92782600  1
  H  42  1  0.54654600  0.86171900  0.88740700  1
  H  45  1  0.50885500  0.84433900  0.86412100  1
  H  46  1  0.47446800  0.89364200  0.89329000  1
  H  47  1  0.47325400  0.79761900  0.92767100  1
  H  48  1  0.55998100  0.93467500  0.87823700  1
  H  59  1  0.74453200  0.82282300  0.63963500  1
  H  68  1  0.79647700  0.86328800  0.62540100  1
  H  71  1  0.75886000  0.88669900  0.60807100  1
  H  72  1  0.72444400  0.85744000  0.65732400  1
  H  73  1  0.72262800  0.82311200  0.56183300  1
  H  74  1  0.80999800  0.87249000  0.69814400  1
  H  85  1  0.24454300  0.16501400  0.87484500  1
  H  94  1  0.29652900  0.12450200  0.88903100  1
  H  97  1  0.25887900  0.10114300  0.90638600  1
  H  98  1  0.22445100  0.13039600  0.85720300  1
  H  99  1  0.22265900  0.16470200  0.95266500  1
  H  100  1  0.30999500  0.11532500  0.81630700  1
  H  111  1  0.52478700  0.11173900  0.92752300  1
  H  120  1  0.47352800  0.12528000  0.88631100  1
  H  123  1  0.51126900  0.14392900  0.86395800  1
  H  124  1  0.54653700  0.09553500  0.89271500  1
  H  125  1  0.54637000  0.19012300  0.92764500  1
  H  126  1  0.47670500  0.05352400  0.85474500  1
  H  137  1  0.02478400  0.87609200  0.58695900  1
  H  146  1  0.97351800  0.86254700  0.62818000  1
  H  149  1  0.01122500  0.84387700  0.65050700  1
  H  150  1  0.04653100  0.89228500  0.62177100  1
  H  151  1  0.04705400  0.79800000  0.58704300  1
  H  152  1  0.97670200  0.93430800  0.65973100  1
  H  163  1  0.77476800  0.82309700  0.87469100  1
  H  172  1  0.72353400  0.86445900  0.88819400  1
  H  175  1  0.76125400  0.88687000  0.90677300  1
  H  176  1  0.79653500  0.85801200  0.85854400  1
  H  177  1  0.79640700  0.82296600  0.95280300  1
  H  178  1  0.72672000  0.89611700  0.81666900  1
  H  189  1  0.27478900  0.16472700  0.63979400  1
  H  198  1  0.22353100  0.12337500  0.62628500  1
  H  201  1  0.26124400  0.10097200  0.60769100  1
  H  202  1  0.29653400  0.12981300  0.65592900  1
  H  203  1  0.29671100  0.16475600  0.56179700  1
  H  204  1  0.22670000  0.09172100  0.69781400  1
  H  215  1  0.02215200  0.87543200  0.42740100  1
  H  224  1  0.97361900  0.86151300  0.38605400  1
  H  227  1  0.01175700  0.84460800  0.36250300  1
  H  228  1  0.04551600  0.89338700  0.39253800  1
  H  229  1  0.04834900  0.79898100  0.42613900  1
  H  230  1  0.95992600  0.93444800  0.37673600  1
  H  241  1  0.52202700  0.11241000  0.08708800  1
  H  250  1  0.47353800  0.12625500  0.12858100  1
  H  253  1  0.51169500  0.14319700  0.15200400  1
  H  254  1  0.54547200  0.09449700  0.12192200  1
  H  255  1  0.54817300  0.18893200  0.08832900  1
  H  256  1  0.45989600  0.05333600  0.13770900  1
  H  267  1  0.27374300  0.16566900  0.37629900  1
  H  276  1  0.22345300  0.12449400  0.39041800  1
  H  279  1  0.26177500  0.10037000  0.40596400  1
  H  280  1  0.29532800  0.13042200  0.35854600  1
  H  281  1  0.30559500  0.16268000  0.44906400  1
  H  282  1  0.20981300  0.11519300  0.31765900  1
  H  293  1  0.77375600  0.82217700  0.13818900  1
  H  302  1  0.72346100  0.86335100  0.12405900  1
  H  305  1  0.76177700  0.88747000  0.10851100  1
  H  306  1  0.79533100  0.85741300  0.15593800  1
  H  307  1  0.80561700  0.82517000  0.06544500  1
  H  308  1  0.70979900  0.87264400  0.19681500  1
  H  319  1  0.49819300  0.87555000  0.08736400  1
  H  328  1  0.54554700  0.86217600  0.13043300  1
  H  331  1  0.50774600  0.84412000  0.15214500  1
  H  332  1  0.47320600  0.89197400  0.12236800  1
  H  333  1  0.47163000  0.79908400  0.08841900  1
  H  334  1  0.54317100  0.93415400  0.16122700  1
  H  345  1  0.99821100  0.11230200  0.42712000  1
  H  354  1  0.04554500  0.12566300  0.38405500  1
  H  357  1  0.00778300  0.14371600  0.36233300  1
  H  358  1  0.97320400  0.09586700  0.39211300  1
  H  359  1  0.97144700  0.18863500  0.42602300  1
  H  360  1  0.04316300  0.05367100  0.35327100  1
  H  371  1  0.24660700  0.16526700  0.13863300  1
  H  380  1  0.29592800  0.12192000  0.12567000  1
  H  383  1  0.25803600  0.10009900  0.10844700  1
  H  384  1  0.22347900  0.12996600  0.15518600  1
  H  385  1  0.21446500  0.16242200  0.06592800  1
  H  386  1  0.29272300  0.09132500  0.19709600  1
  H  397  1  0.74659700  0.82257300  0.37584700  1
  H  406  1  0.79591900  0.86589000  0.38881300  1
  H  409  1  0.75803900  0.88773800  0.40603100  1
  H  410  1  0.72347600  0.85787500  0.35929500  1
  H  411  1  0.71443900  0.82542800  0.44852300  1
  H  412  1  0.79274800  0.89649300  0.31737000  1
  H  423  1  0.49635300  0.61177300  0.08773500  1
  H  432  1  0.54674500  0.62593500  0.12890700  1
  H  435  1  0.50806800  0.64170400  0.15279800  1
  H  436  1  0.47468500  0.59407400  0.12281900  1
  H  437  1  0.46430800  0.68470400  0.09064500  1
  H  438  1  0.56011100  0.55286000  0.13773700  1
  H  449  1  0.99616300  0.37603000  0.42686300  1
  H  458  1  0.04651400  0.36178400  0.38581300  1
  H  461  1  0.00809800  0.34625400  0.36177700  1
  H  462  1  0.97456900  0.39376200  0.39172200  1
  H  463  1  0.96428500  0.30304300  0.42388000  1
  H  464  1  0.06004800  0.43481300  0.37657500  1
  H  475  1  0.24779100  0.32477800  0.13755600  1
  H  484  1  0.29630400  0.36644100  0.12393300  1
  H  487  1  0.25825800  0.38989000  0.10691300  1
  H  488  1  0.22436300  0.35974200  0.15543500  1
  H  489  1  0.22136500  0.32612400  0.06147300  1
  H  490  1  0.30994100  0.37569100  0.19653800  1
  H  501  1  0.74787800  0.66327900  0.37701800  1
  H  510  1  0.79648400  0.61975800  0.39032600  1
  H  513  1  0.75847000  0.59807200  0.40727900  1
  H  514  1  0.72461300  0.62785400  0.35955900  1
  H  515  1  0.72137400  0.66164800  0.45303500  1
  H  516  1  0.81022800  0.61151100  0.31721900  1
  H  527  1  0.02310100  0.61167400  0.42653600  1
  H  536  1  0.97392800  0.62526400  0.38288100  1
  H  539  1  0.01226600  0.64215500  0.36152200  1
  H  540  1  0.04654300  0.59546200  0.39127300  1
  H  541  1  0.05553600  0.68456900  0.42372200  1
  H  542  1  0.97720000  0.55305300  0.35286200  1
  H  553  1  0.52307300  0.37615900  0.08793900  1
  H  562  1  0.47385100  0.36257900  0.13154900  1
  H  565  1  0.51225600  0.34569700  0.15295500  1
  H  566  1  0.54651000  0.39234900  0.12321000  1
  H  567  1  0.55553700  0.30327700  0.09075500  1
  H  568  1  0.47718900  0.43477300  0.16162700  1
  H  579  1  0.27168700  0.32516000  0.37652600  1
  H  588  1  0.22428300  0.36957600  0.38925600  1
  H  591  1  0.26183800  0.39014700  0.40770400  1
  H  592  1  0.29655800  0.36011100  0.35978900  1
  H  593  1  0.29800900  0.32623600  0.45286300  1
  H  594  1  0.22712800  0.39943000  0.31767200  1
  H  605  1  0.77170600  0.66265000  0.13797300  1
  H  614  1  0.72418900  0.61824500  0.12525900  1
  H  617  1  0.76182400  0.59769700  0.10676900  1
  H  618  1  0.79651800  0.62769700  0.15466500  1
  H  619  1  0.79816600  0.66154900  0.06172500  1
  H  620  1  0.72711200  0.58838400  0.19682500  1
  H  631  1  0.52035600  0.37544200  0.92952100  1
  H  640  1  0.47355700  0.36166900  0.88762400  1
  H  643  1  0.51245200  0.34653800  0.86337800  1
  H  644  1  0.54540100  0.39347900  0.89411800  1
  H  645  1  0.55499200  0.30377500  0.92660200  1
  H  646  1  0.45990300  0.43470200  0.87825400  1
  H  657  1  0.02030400  0.61240200  0.58496500  1
  H  666  1  0.97354700  0.62614600  0.62697700  1
  H  669  1  0.01243200  0.64129300  0.65110800  1
  H  670  1  0.04539500  0.59438000  0.62032900  1
  H  671  1  0.05500900  0.68402300  0.58787900  1
  H  672  1  0.95984700  0.55315100  0.63622400  1
  H  683  1  0.77031300  0.66363000  0.87537500  1
  H  692  1  0.72349000  0.62141200  0.88900100  1
  H  695  1  0.76240700  0.59726800  0.90408800  1
  H  696  1  0.79538400  0.62809500  0.85745100  1
  H  697  1  0.80500300  0.66065600  0.94678700  1
  H  698  1  0.70989300  0.61209600  0.81628000  1
  H  709  1  0.27037100  0.32424300  0.63912900  1
  H  718  1  0.22356600  0.36636500  0.62538900  1
  H  721  1  0.26247600  0.39058900  0.61035000  1
  H  722  1  0.29538900  0.35975800  0.65710200  1
  H  723  1  0.30501900  0.32716800  0.56771300  1
  H  724  1  0.20985700  0.37574200  0.69814400  1
  H  735  1  0.00026700  0.37559600  0.58525400  1
  H  744  1  0.04626200  0.36291800  0.62915500  1
  H  747  1  0.00722400  0.34616300  0.65130500  1
  H  748  1  0.97340300  0.39188300  0.62080400  1
  H  749  1  0.96497000  0.30405900  0.58809300  1
  H  750  1  0.04239800  0.43472800  0.66016300  1
  H  761  1  0.50027100  0.61225200  0.92923700  1
  H  770  1  0.54624100  0.62492600  0.88534800  1
  H  773  1  0.50723400  0.64165900  0.86317800  1
  H  774  1  0.47339000  0.59595000  0.89368300  1
  H  775  1  0.46496900  0.68377500  0.92638500  1
  H  776  1  0.54239400  0.55310000  0.85434200  1
  H  787  1  0.74996100  0.66331500  0.63922700  1
  H  796  1  0.79555900  0.61956000  0.62598200  1
  H  799  1  0.75691500  0.59702800  0.60984600  1
  H  800  1  0.72333000  0.62765900  0.65571800  1
  H  801  1  0.71490800  0.66057300  0.56785800  1
  H  802  1  0.79320500  0.58857000  0.69777400  1
  H  813  1  0.24994500  0.32453200  0.87524300  1
  H  822  1  0.29555600  0.36828000  0.88849000  1
  H  825  1  0.25691400  0.39080800  0.90463300  1
  H  826  1  0.22333400  0.36019000  0.85876600  1
  H  827  1  0.21491000  0.32727100  0.94661700  1
  H  828  1  0.29322400  0.39925800  0.81668600  1
  H  838  1  0.97286300  0.26753000  0.63966600  1
  H  839  1  0.96755400  0.23127800  0.64396200  1
  H  841  1  0.01720800  0.21973600  0.59924600  1
  H  843  1  0.03728200  0.26504000  0.59451100  1
  H  845  1  0.97161900  0.19640300  0.62629500  1
  H  847  1  0.00999900  0.28977900  0.59972700  1
  H  853  1  0.47284600  0.72029300  0.87482800  1
  H  854  1  0.46751100  0.75654200  0.87055200  1
  H  856  1  0.51715300  0.76809000  0.91526300  1
  H  858  1  0.53727000  0.72278400  0.92000800  1
  H  860  1  0.47155300  0.79142400  0.88834100  1
  H  862  1  0.51002200  0.69804700  0.91473500  1
  H  868  1  0.72290200  0.87587900  0.48441800  1
  H  869  1  0.71759100  0.88025900  0.52054100  1
  H  871  1  0.76719700  0.83541600  0.53212600  1
  H  873  1  0.78716600  0.83058600  0.48677700  1
  H  875  1  0.72168900  0.86268000  0.55540500  1
  H  877  1  0.75912800  0.83528900  0.46226400  1
  H  883  1  0.22288200  0.11197500  0.03005900  1
  H  884  1  0.21759100  0.10758900  0.99393900  1
  H  886  1  0.26721100  0.15241800  0.98236300  1
  H  888  1  0.28716600  0.15726100  0.02770300  1
  H  890  1  0.22169300  0.12514200  0.95906300  1
  H  892  1  0.25913200  0.15254500  0.05222600  1
  H  898  1  0.54705800  0.26749900  0.87485600  1
  H  899  1  0.55237500  0.23125400  0.87056900  1
  H  901  1  0.50270900  0.21971200  0.91525800  1
  H  903  1  0.48260800  0.26501200  0.92001000  1
  H  905  1  0.54831700  0.19637900  0.88842300  1
  H  907  1  0.50988800  0.28976600  0.91474300  1
  H  913  1  0.04703500  0.72034000  0.63962600  1
  H  914  1  0.05231600  0.75658700  0.64395600  1
  H  916  1  0.00265200  0.76814000  0.59925500  1
  H  918  1  0.98261200  0.72280800  0.59447900  1
  H  920  1  0.04813600  0.79154700  0.62648000  1
  H  922  1  0.00990000  0.69807400  0.59971500  1
  H  928  1  0.79700200  0.87584900  0.02998400  1
  H  929  1  0.80236300  0.88019900  0.99386300  1
  H  931  1  0.75269200  0.83538800  0.98228000  1
  H  933  1  0.73265000  0.83064900  0.02757400  1
  H  935  1  0.79830300  0.86236100  0.95902200  1
  H  937  1  0.76069700  0.83530900  0.05211800  1
  H  943  1  0.29697400  0.11196400  0.48449300  1
  H  944  1  0.30231700  0.10759700  0.52061400  1
  H  946  1  0.25266500  0.15242800  0.53220400  1
  H  948  1  0.23265000  0.15719700  0.48690700  1
  H  950  1  0.29822200  0.12529600  0.55549900  1
  H  952  1  0.26067500  0.15252100  0.46235600  1
  H  958  1  0.04695800  0.72023000  0.37331000  1
  H  959  1  0.05235300  0.75645200  0.36889800  1
  H  961  1  0.00274700  0.76819800  0.41360700  1
  H  963  1  0.98265700  0.72277800  0.41841200  1
  H  965  1  0.04842900  0.79141900  0.38665900  1
  H  967  1  0.01063600  0.69812800  0.41376600  1
  H  973  1  0.54697700  0.26762000  0.14115200  1
  H  974  1  0.55239200  0.23140000  0.14555000  1
  H  976  1  0.50279400  0.21964600  0.10084900  1
  H  978  1  0.48267400  0.26507500  0.09602600  1
  H  980  1  0.54847400  0.19641600  0.12770400  1
  H  982  1  0.51061700  0.28971700  0.10072300  1
  H  988  1  0.47291100  0.72023400  0.14115300  1
  H  989  1  0.46751800  0.75645500  0.14557600  1
  H  991  1  0.51711100  0.76820900  0.10086900  1
  H  993  1  0.53720700  0.72277800  0.09603000  1
  H  995  1  0.47148700  0.79146000  0.12780100  1
  H  997  1  0.50922700  0.69812500  0.10071100  1
  H  1003  1  0.97289700  0.26759000  0.37335400  1
  H  1004  1  0.96754300  0.23137700  0.36890400  1
  H  1006  1  0.01713500  0.21962400  0.41361100  1
  H  1008  1  0.03720400  0.26505900  0.41847500  1
  H  1010  1  0.97156600  0.19633900  0.38646800  1
  H  1012  1  0.00922900  0.28971600  0.41377800  1
  H  1018  1  0.22283500  0.37909700  0.98288100  1
  H  1019  1  0.21751000  0.38349800  0.01899500  1
  H  1021  1  0.26713300  0.33865700  0.03062300  1
  H  1023  1  0.28724300  0.33376600  0.98545400  1
  H  1025  1  0.22151500  0.36574200  0.05384300  1
  H  1027  1  0.26002800  0.33906000  0.96077500  1
  H  1033  1  0.72285300  0.60872600  0.53160800  1
  H  1034  1  0.71750900  0.60432900  0.49549100  1
  H  1036  1  0.76714400  0.64916800  0.48384900  1
  H  1038  1  0.78725600  0.65402900  0.52903000  1
  H  1040  1  0.72153300  0.62203700  0.46059800  1
  H  1042  1  0.76001200  0.64878800  0.55370100  1
  H  1048  1  0.29706000  0.37910000  0.53150400  1
  H  1049  1  0.30241100  0.38343100  0.49537600  1
  H  1051  1  0.25275700  0.33861300  0.48381400  1
  H  1053  1  0.23262800  0.33384600  0.52899400  1
  H  1055  1  0.29838600  0.36540700  0.46050400  1
  H  1057  1  0.25994200  0.33904000  0.55366900  1
  H  1063  1  0.79703300  0.60871100  0.98297900  1
  H  1064  1  0.80236600  0.60436700  0.01910800  1
  H  1066  1  0.75272400  0.64920000  0.03067200  1
  H  1068  1  0.73262900  0.65399900  0.98548700  1
  H  1070  1  0.79831200  0.62225500  0.05402200  1
  H  1072  1  0.75992300  0.64878400  0.96080800  1
  H  1078  1  0.95676600  0.11321700  0.52972700  1
  H  1079  1  0.95154100  0.10982800  0.49344600  1
  H  1081  1  0.00159700  0.15522100  0.48358400  1
  H  1083  1  0.00558500  0.17103400  0.53095000  1
  H  1085  1  0.96701900  0.11656800  0.45806700  1
  H  1087  1  0.00547300  0.13446800  0.55081900  1
  H  1093  1  0.45677700  0.87462800  0.98475700  1
  H  1094  1  0.45154400  0.87801100  0.02103700  1
  H  1096  1  0.50160700  0.83262800  0.03089900  1
  H  1098  1  0.50561500  0.81680300  0.98353600  1
  H  1100  1  0.46703200  0.87128000  0.05641300  1
  H  1102  1  0.50546900  0.85339800  0.96365600  1
  H  1108  1  0.70676000  0.76567600  0.63832900  1
  H  1109  1  0.70161200  0.72925100  0.64168900  1
  H  1111  1  0.75167700  0.71949900  0.59642000  1
  H  1113  1  0.75559500  0.76693400  0.58065000  1
  H  1115  1  0.71706300  0.69373500  0.63476800  1
  H  1117  1  0.75547400  0.78688700  0.61708500  1
  H  1123  1  0.20677100  0.22217800  0.87612800  1
  H  1124  1  0.20162300  0.25859600  0.87279100  1
  H  1126  1  0.25166800  0.26832900  0.91808200  1
  H  1128  1  0.25560700  0.22086700  0.93380600  1
  H  1130  1  0.21709600  0.29409500  0.87970400  1
  H  1132  1  0.25545500  0.20096400  0.89731400  1
  H  1138  1  0.56306100  0.11317500  0.98469100  1
  H  1139  1  0.56833400  0.10982200  0.02096300  1
  H  1141  1  0.51829600  0.15522400  0.03084100  1
  H  1143  1  0.51426900  0.17104100  0.98350400  1
  H  1145  1  0.55282500  0.11656300  0.05633500  1
  H  1147  1  0.51427600  0.13453900  0.96366800  1
  H  1153  1  0.06305700  0.87462600  0.52981600  1
  H  1154  1  0.06833100  0.87801300  0.49354100  1
  H  1156  1  0.01829300  0.83261700  0.48362900  1
  H  1158  1  0.01430700  0.81674600  0.53093400  1
  H  1160  1  0.05282700  0.87128000  0.45815600  1
  H  1162  1  0.01425900  0.85317100  0.55081400  1
  H  1168  1  0.81307100  0.76574700  0.87612500  1
  H  1169  1  0.81824700  0.72933000  0.87277600  1
  H  1171  1  0.76821300  0.71956500  0.91806900  1
  H  1173  1  0.76432300  0.76695300  0.93386400  1
  H  1175  1  0.80284500  0.69380900  0.87975400  1
  H  1177  1  0.76427100  0.78686300  0.89753000  1
  H  1183  1  0.31311400  0.22208900  0.63833100  1
  H  1184  1  0.31827400  0.25851300  0.64168000  1
  H  1186  1  0.26821800  0.26826500  0.59639800  1
  H  1188  1  0.26431500  0.22085000  0.58063400  1
  H  1190  1  0.30281000  0.29401600  0.63474200  1
  H  1192  1  0.26428300  0.20098100  0.61700000  1
  H  1198  1  0.31299900  0.22222800  0.37771500  1
  H  1199  1  0.31833700  0.25860600  0.37435200  1
  H  1201  1  0.26833600  0.26859800  0.41963700  1
  H  1203  1  0.26434400  0.22111000  0.43544500  1
  H  1205  1  0.30298400  0.29410300  0.38103400  1
  H  1207  1  0.26415000  0.20127800  0.39841900  1
  H  1213  1  0.81299100  0.76560600  0.13677200  1
  H  1214  1  0.81833200  0.72922800  0.14012600  1
  H  1216  1  0.76832000  0.71924500  0.09485200  1
  H  1218  1  0.76431100  0.76673400  0.07904000  1
  H  1220  1  0.80291200  0.69374600  0.13347800  1
  H  1222  1  0.76415500  0.78654700  0.11607300  1
  H  1228  1  0.20692600  0.22210100  0.13679400  1
  H  1229  1  0.20153200  0.25848800  0.14012000  1
  H  1231  1  0.25155100  0.26847500  0.09485700  1
  H  1233  1  0.25555900  0.22107100  0.07900300  1
  H  1235  1  0.21703100  0.29400000  0.13342200  1
  H  1237  1  0.25595300  0.20127300  0.11584800  1
  H  1243  1  0.70693900  0.76571000  0.37766000  1
  H  1244  1  0.70154500  0.72933000  0.37436300  1
  H  1246  1  0.75155200  0.71936700  0.41964200  1
  H  1248  1  0.75557100  0.76679600  0.43545300  1
  H  1250  1  0.71710900  0.69383300  0.38104900  1
  H  1252  1  0.75593900  0.78654900  0.39856700  1
  H  1258  1  0.45690500  0.61314600  0.03123000  1
  H  1259  1  0.45162700  0.60983100  0.99494300  1
  H  1261  1  0.50160900  0.65531000  0.98515400  1
  H  1263  1  0.50556800  0.67111100  0.03242000  1
  H  1265  1  0.46707800  0.61673000  0.95952300  1
  H  1267  1  0.50576200  0.63395400  0.05216000  1
  H  1273  1  0.95690700  0.37465000  0.48324700  1
  H  1274  1  0.95163500  0.37800300  0.51953700  1
  H  1276  1  0.00161600  0.33252700  0.52935800  1
  H  1278  1  0.00552900  0.31667400  0.48211300  1
  H  1280  1  0.96707900  0.37111400  0.55496400  1
  H  1282  1  0.00573500  0.35378800  0.46232000  1
  H  1288  1  0.06295400  0.61314700  0.48316900  1
  H  1289  1  0.06824600  0.60981800  0.51945900  1
  H  1291  1  0.01824900  0.65528800  0.52925500  1
  H  1293  1  0.01436200  0.67116600  0.48205900  1
  H  1295  1  0.05284900  0.61679000  0.55487300  1
  H  1297  1  0.01400000  0.63413700  0.46235400  1
  H  1303  1  0.56299500  0.37465600  0.03132200  1
  H  1304  1  0.56827600  0.37799500  0.99502400  1
  H  1306  1  0.51825700  0.33253700  0.98522600  1
  H  1308  1  0.51436500  0.31666400  0.03242400  1
  H  1310  1  0.55282800  0.37105700  0.95961100  1
  H  1312  1  0.51399800  0.35368100  0.05213500  1
  H  1318  1  0.16176200  0.08350300  0.66716200  1
  H  1319  1  0.12189800  0.07892800  0.67240400  1
  H  1321  1  0.10796300  0.12386600  0.62774000  1
  H  1323  1  0.16317200  0.13801400  0.61929900  1
  H  1325  1  0.08219700  0.09510300  0.66806200  1
  H  1327  1  0.18759100  0.11165300  0.62710600  1
  H  1333  1  0.66177500  0.90433800  0.84733500  1
  H  1334  1  0.62191100  0.90889800  0.84206200  1
  H  1336  1  0.60795800  0.86395500  0.88671500  1
  H  1338  1  0.66316700  0.84982300  0.89519300  1
  H  1340  1  0.58219700  0.89253900  0.84634000  1
  H  1342  1  0.68759500  0.87617400  0.88738300  1
  H  1348  1  0.91178500  0.90363300  0.66788200  1
  H  1349  1  0.87193800  0.90883200  0.67254500  1
  H  1351  1  0.85794200  0.86397300  0.62780900  1
  H  1353  1  0.91311100  0.85563500  0.61354300  1
  H  1355  1  0.83222800  0.90425600  0.65709600  1
  H  1357  1  0.93756400  0.86338100  0.63987400  1
  H  1363  1  0.41178700  0.08426100  0.84657600  1
  H  1364  1  0.37193000  0.07901500  0.84197000  1
  H  1366  1  0.35794900  0.12383900  0.88673600  1
  H  1368  1  0.41314000  0.13227500  0.90091200  1
  H  1370  1  0.33222300  0.08341000  0.85791700  1
  H  1372  1  0.43758700  0.12446200  0.87464700  1
  H  1378  1  0.85768600  0.90391400  0.34630300  1
  H  1379  1  0.89739400  0.90893700  0.34064200  1
  H  1381  1  0.91251900  0.86421300  0.38516200  1
  H  1383  1  0.85790300  0.84958800  0.39495100  1
  H  1385  1  0.93749500  0.89522100  0.34551600  1
  H  1387  1  0.83285100  0.87329100  0.38622400  1
  H  1393  1  0.35782100  0.08383500  0.16813700  1
  H  1394  1  0.39758000  0.07899400  0.17384100  1
  H  1396  1  0.41250300  0.12378700  0.12935200  1
  H  1398  1  0.35786100  0.13817500  0.11944800  1
  H  1400  1  0.43767600  0.09405000  0.16933800  1
  H  1402  1  0.33286700  0.11455600  0.12830000  1
  H  1408  1  0.10832400  0.08423900  0.34796700  1
  H  1409  1  0.14813500  0.07902800  0.34342600  1
  H  1411  1  0.16206300  0.12365600  0.38831300  1
  H  1413  1  0.10716400  0.13697800  0.39916900  1
  H  1415  1  0.18779000  0.08325200  0.36000500  1
  H  1417  1  0.08230800  0.12213900  0.38092800  1
  H  1423  1  0.60832000  0.90359100  0.16651600  1
  H  1424  1  0.64812800  0.90880700  0.17107100  1
  H  1426  1  0.66207800  0.86419100  0.12617600  1
  H  1428  1  0.60722000  0.85073700  0.11541700  1
  H  1430  1  0.68779300  0.90457800  0.15454400  1
  H  1432  1  0.58232000  0.86575400  0.13344000  1
  H  1438  1  0.66146000  0.58365400  0.16836600  1
  H  1439  1  0.62153800  0.57929800  0.17373400  1
  H  1441  1  0.60779200  0.62438500  0.12922900  1
  H  1443  1  0.66011400  0.63012800  0.11158600  1
  H  1445  1  0.58181200  0.59904500  0.16976500  1
  H  1447  1  0.68661700  0.62261800  0.13454500  1
  H  1453  1  0.16204600  0.40408600  0.34622000  1
  H  1454  1  0.12232500  0.40892400  0.34067600  1
  H  1456  1  0.10759500  0.36388500  0.38498700  1
  H  1458  1  0.16000600  0.35742500  0.40274500  1
  H  1460  1  0.08236400  0.39255800  0.34463500  1
  H  1462  1  0.18668300  0.36500000  0.38004200  1
  H  1468  1  0.41177500  0.40626100  0.16606000  1
  H  1469  1  0.37205800  0.41175700  0.17092100  1
  H  1471  1  0.35735500  0.36726000  0.12604900  1
  H  1473  1  0.40978200  0.34950100  0.11959700  1
  H  1475  1  0.33213200  0.40757200  0.15526900  1
  H  1477  1  0.43633700  0.37246800  0.12696100  1
  H  1483  1  0.91174900  0.58197800  0.34857300  1
  H  1484  1  0.87212000  0.57665600  0.34375200  1
  H  1486  1  0.85741800  0.62080200  0.38883800  1
  H  1488  1  0.90991300  0.63870900  0.39511500  1
  H  1490  1  0.83711500  0.57673500  0.36944900  1
  H  1492  1  0.93644200  0.61519600  0.38794100  1
  H  1498  1  0.35852000  0.40448000  0.84716200  1
  H  1499  1  0.39835300  0.40905900  0.84213900  1
  H  1501  1  0.41206500  0.36406200  0.88672500  1
  H  1503  1  0.35719300  0.35337500  0.90002700  1
  H  1505  1  0.43795300  0.39292900  0.84667100  1
  H  1507  1  0.33236400  0.37136400  0.88487300  1
  H  1513  1  0.85853400  0.58333000  0.66731400  1
  H  1514  1  0.89837500  0.57879100  0.67237800  1
  H  1516  1  0.91209200  0.62380700  0.62782000  1
  H  1518  1  0.85719900  0.63462600  0.61463600  1
  H  1520  1  0.93799800  0.59524700  0.66791900  1
  H  1522  1  0.83238700  0.61644600  0.62958700  1
  H  1528  1  0.60763400  0.58195400  0.84692600  1
  H  1529  1  0.64736200  0.57599200  0.84212200  1
  H  1531  1  0.66257400  0.62055600  0.88676800  1
  H  1533  1  0.60805600  0.63026700  0.90146000  1
  H  1535  1  0.68753100  0.58016500  0.85750400  1
  H  1537  1  0.58303700  0.62224300  0.87727400  1
  H  1543  1  0.10766200  0.40594100  0.66753100  1
  H  1544  1  0.14738600  0.41184600  0.67240300  1
  H  1546  1  0.16260500  0.36727400  0.62776000  1
  H  1548  1  0.10805900  0.35737400  0.61317500  1
  H  1550  1  0.18755800  0.40743600  0.65756900  1
  H  1552  1  0.08306500  0.36566700  0.63712100  1
  H  1558  1  0.03257400  0.97023000  0.65153100  1
  H  1559  1  0.03550100  0.00630200  0.65763100  1
  H  1561  1  0.98563500  0.01786100  0.61304600  1
  H  1563  1  0.98215700  0.97145300  0.59406400  1
  H  1565  1  0.01650100  0.04031600  0.65506300  1
  H  1567  1  0.98919400  0.94733500  0.61783600  1
  H  1573  1  0.53256500  0.01760100  0.86294200  1
  H  1574  1  0.53548600  0.98152800  0.85685000  1
  H  1576  1  0.48561800  0.96998300  0.90143100  1
  H  1578  1  0.48210800  0.01640000  0.92040700  1
  H  1580  1  0.51646200  0.94750800  0.85941900  1
  H  1582  1  0.48920200  0.04050200  0.89664700  1
  H  1588  1  0.78256000  0.88788300  0.78084700  1
  H  1589  1  0.78549600  0.89399600  0.74489200  1
  H  1591  1  0.73562400  0.84928600  0.73336200  1
  H  1593  1  0.73211200  0.83023800  0.77963900  1
  H  1595  1  0.76656200  0.89143000  0.71098300  1
  H  1597  1  0.73920000  0.85406900  0.80367100  1
  H  1603  1  0.28254100  0.09993600  0.73363700  1
  H  1604  1  0.28547300  0.09383700  0.76959400  1
  H  1606  1  0.23561500  0.13856600  0.78110600  1
  H  1608  1  0.23208300  0.15758700  0.73481800  1
  H  1610  1  0.26646500  0.09641500  0.80350800  1
  H  1612  1  0.23920700  0.13377800  0.71079600  1
  H  1618  1  0.98737100  0.01762600  0.36131400  1
  H  1619  1  0.98434100  0.98155800  0.35526200  1
  H  1621  1  0.03419400  0.96994200  0.39983700  1
  H  1623  1  0.03774900  0.01637100  0.41879800  1
  H  1625  1  0.00321000  0.94749200  0.35785600  1
  H  1627  1  0.03076500  0.04050100  0.39497400  1
  H  1633  1  0.48737200  0.97022100  0.15315500  1
  H  1634  1  0.48437900  0.00629200  0.15921300  1
  H  1636  1  0.53422400  0.01787500  0.11462100  1
  H  1638  1  0.53771300  0.97144500  0.09566200  1
  H  1640  1  0.50334300  0.04033600  0.15664300  1
  H  1642  1  0.53077500  0.94733400  0.11951900  1
  H  1648  1  0.23741300  0.09965600  0.23445700  1
  H  1649  1  0.23435200  0.09389100  0.27046400  1
  H  1651  1  0.28414400  0.13869400  0.28170700  1
  H  1653  1  0.28730600  0.15735700  0.23519800  1
  H  1655  1  0.25303100  0.09662200  0.30440300  1
  H  1657  1  0.28209300  0.13176900  0.21175300  1
  H  1663  1  0.73738400  0.88815800  0.28003000  1
  H  1664  1  0.73432100  0.89392600  0.24402100  1
  H  1666  1  0.78412500  0.84913400  0.23276800  1
  H  1668  1  0.78731400  0.83048300  0.27928200  1
  H  1670  1  0.75305500  0.89122400  0.21007400  1
  H  1672  1  0.78207200  0.85603000  0.30274200  1
  H  1678  1  0.53264300  0.47026600  0.15304700  1
  H  1679  1  0.53546900  0.50632000  0.15924400  1
  H  1681  1  0.48556800  0.51788700  0.11466700  1
  H  1683  1  0.48210000  0.47143900  0.09563100  1
  H  1685  1  0.51623500  0.54025600  0.15677600  1
  H  1687  1  0.48935700  0.44739400  0.11932700  1
  H  1693  1  0.03264000  0.51757600  0.36142000  1
  H  1694  1  0.03549000  0.48152000  0.35523300  1
  H  1696  1  0.98558700  0.46993800  0.39980000  1
  H  1698  1  0.98205600  0.51638900  0.41882900  1
  H  1700  1  0.01639900  0.44754600  0.35775600  1
  H  1702  1  0.98936600  0.54043400  0.39515600  1
  H  1708  1  0.28245600  0.39137600  0.28001800  1
  H  1709  1  0.28555000  0.39705200  0.24399200  1
  H  1711  1  0.23575400  0.35226000  0.23282000  1
  H  1713  1  0.23257900  0.33369700  0.27935900  1
  H  1715  1  0.26690800  0.39426400  0.21000700  1
  H  1717  1  0.23767400  0.35941900  0.30280800  1
  H  1723  1  0.78246400  0.59644500  0.23451700  1
  H  1724  1  0.78538700  0.59079700  0.27060300  1
  H  1726  1  0.73558200  0.63566400  0.28151300  1
  H  1728  1  0.73255300  0.65416700  0.23505500  1
  H  1730  1  0.76647500  0.59390300  0.30464600  1
  H  1732  1  0.73768200  0.62841500  0.21164700  1
  H  1738  1  0.48720900  0.51756400  0.86302900  1
  H  1739  1  0.48437400  0.48152300  0.85678900  1
  H  1741  1  0.53427500  0.46989100  0.90133700  1
  H  1743  1  0.53793400  0.51640800  0.92035500  1
  H  1745  1  0.50337700  0.44751700  0.85933200  1
  H  1747  1  0.53029200  0.54045700  0.89690100  1
  H  1753  1  0.98721000  0.47028000  0.65144700  1
  H  1754  1  0.98439700  0.50632300  0.65768700  1
  H  1756  1  0.03428900  0.51793600  0.61312600  1
  H  1758  1  0.03789200  0.47142500  0.59410500  1
  H  1760  1  0.00345900  0.54031400  0.65515700  1
  H  1762  1  0.03030700  0.44738300  0.61759000  1
  H  1768  1  0.73737200  0.59674600  0.73361200  1
  H  1769  1  0.73441600  0.59064600  0.76956900  1
  H  1771  1  0.78427000  0.63540100  0.78109600  1
  H  1773  1  0.78770400  0.65446400  0.73486100  1
  H  1775  1  0.75341800  0.59324500  0.80347100  1
  H  1777  1  0.78077400  0.63053600  0.71084200  1
  H  1783  1  0.23734900  0.39107400  0.78088900  1
  H  1784  1  0.23434900  0.39718700  0.74494000  1
  H  1786  1  0.28421100  0.35245700  0.73334500  1
  H  1788  1  0.28771700  0.33333333  0.77959700  1
  H  1790  1  0.25330900  0.39462200  0.71100400  1
  H  1792  1  0.28075300  0.35726700  0.80364100  1
  C  1  1  0.00455600  0.12802200  0.61339400  1
  C  2  1  0.99408500  0.12580000  0.59399500  1
  C  3  1  0.98406700  0.14245000  0.58350200  1
  C  4  1  0.98516700  0.16236800  0.59210000  1
  C  5  1  0.99622300  0.16588000  0.61120500  1
  C  6  1  0.00558500  0.14853200  0.62168500  1
  C  9  1  0.01560500  0.11010900  0.62246300  1
  C  10  1  0.00651200  0.08953200  0.62264500  1
  C  11  1  0.01873600  0.07247300  0.63102800  1
  C  12  1  0.04082600  0.07642600  0.63904200  1
  C  13  1  0.05090200  0.09609500  0.63775700  1
  C  14  1  0.03836400  0.11237600  0.62918600  1
  C  27  1  0.50455400  0.85982500  0.90108700  1
  C  28  1  0.49408800  0.86203800  0.92049000  1
  C  29  1  0.48405900  0.84538700  0.93097600  1
  C  30  1  0.48516500  0.82547100  0.92236900  1
  C  31  1  0.49618600  0.82197600  0.90324100  1
  C  32  1  0.50558000  0.83932100  0.89278500  1
  C  35  1  0.51563200  0.87774300  0.89205800  1
  C  36  1  0.50650600  0.89830700  0.89184800  1
  C  37  1  0.51872000  0.91536800  0.88345900  1
  C  38  1  0.54081500  0.91142100  0.87544700  1
  C  39  1  0.55091400  0.89175500  0.87672700  1
  C  40  1  0.53836900  0.87547300  0.88528400  1
  C  53  1  0.75449800  0.84964100  0.62356000  1
  C  54  1  0.74404300  0.83017400  0.62578000  1
  C  55  1  0.73404200  0.81964200  0.60917700  1
  C  56  1  0.73511300  0.82827900  0.58932700  1
  C  57  1  0.74624900  0.84739800  0.58582000  1
  C  58  1  0.75557100  0.85794100  0.60310700  1
  C  61  1  0.76558100  0.85869400  0.64141800  1
  C  62  1  0.75648700  0.85891800  0.66193000  1
  C  63  1  0.76877300  0.86728600  0.67892300  1
  C  64  1  0.79084900  0.87533600  0.67495800  1
  C  65  1  0.80090100  0.87400200  0.65534200  1
  C  66  1  0.78833500  0.86542100  0.63912800  1
  C  79  1  0.25456800  0.13822200  0.89092500  1
  C  80  1  0.24407900  0.15767300  0.88870600  1
  C  81  1  0.23404400  0.16819100  0.90529900  1
  C  82  1  0.23516100  0.15957100  0.92515400  1
  C  83  1  0.24625800  0.14043300  0.92865900  1
  C  84  1  0.25559900  0.12989800  0.91137100  1
  C  87  1  0.26560700  0.12913700  0.87305500  1
  C  88  1  0.25648900  0.12894500  0.85255100  1
  C  89  1  0.26873400  0.12056400  0.83554600  1
  C  90  1  0.29081400  0.11249600  0.83947300  1
  C  91  1  0.30089300  0.11378300  0.85908000  1
  C  92  1  0.28836100  0.12238500  0.87531300  1
  C  105  1  0.51489800  0.12801900  0.90085900  1
  C  106  1  0.52521100  0.12571400  0.92033400  1
  C  107  1  0.53542700  0.14227900  0.93084800  1
  C  108  1  0.53450400  0.16222300  0.92227800  1
  C  109  1  0.52340900  0.16583500  0.90320600  1
  C  110  1  0.51390600  0.14856400  0.89270200  1
  C  113  1  0.50454200  0.11005900  0.89119700  1
  C  114  1  0.51481600  0.09003500  0.89004000  1
  C  115  1  0.50342500  0.07284900  0.88110200  1
  C  116  1  0.48095900  0.07592300  0.87346600  1
  C  117  1  0.46970300  0.09499500  0.87557900  1
  C  118  1  0.48190900  0.11174100  0.88398100  1
  C  131  1  0.01490000  0.85980700  0.61362100  1
  C  132  1  0.02523200  0.86211900  0.59415300  1
  C  133  1  0.03546800  0.84556400  0.58363100  1
  C  134  1  0.03451300  0.82561900  0.59219400  1
  C  135  1  0.02340400  0.82199800  0.61125300  1
  C  136  1  0.01389500  0.83925700  0.62176500  1
  C  139  1  0.00452600  0.87776900  0.62326700  1
  C  140  1  0.01481100  0.89778900  0.62444500  1
  C  141  1  0.00341700  0.91497800  0.63337300  1
  C  142  1  0.98094800  0.91190900  0.64100700  1
  C  143  1  0.96970700  0.89282200  0.63893600  1
  C  144  1  0.98190300  0.87608500  0.63050800  1
  C  157  1  0.76490100  0.84985600  0.89091500  1
  C  158  1  0.77521900  0.83032100  0.88861500  1
  C  159  1  0.78544700  0.81978000  0.90512800  1
  C  160  1  0.78456000  0.82839100  0.92500400  1
  C  161  1  0.77339000  0.84748200  0.92860300  1
  C  162  1  0.76390100  0.85803700  0.91139500  1
  C  165  1  0.75453000  0.85952700  0.87300800  1
  C  166  1  0.76481600  0.86070300  0.85305200  1
  C  167  1  0.75341600  0.86965200  0.83591700  1
  C  168  1  0.73094500  0.87730800  0.83898000  1
  C  169  1  0.71970100  0.87521400  0.85799900  1
  C  170  1  0.73190400  0.86678000  0.87468800  1
  C  183  1  0.26488600  0.13798800  0.62355700  1
  C  184  1  0.27522100  0.15751500  0.62586200  1
  C  185  1  0.28546300  0.16805900  0.60936000  1
  C  186  1  0.28451600  0.15947600  0.58947600  1
  C  187  1  0.27337500  0.14037300  0.58586900  1
  C  188  1  0.26389800  0.12980600  0.60307500  1
  C  191  1  0.25453400  0.12829700  0.64146500  1
  C  192  1  0.26481300  0.12714100  0.66142700  1
  C  193  1  0.25342100  0.11817500  0.67855800  1
  C  194  1  0.23095900  0.11050800  0.67549300  1
  C  195  1  0.21970200  0.11261900  0.65648100  1
  C  196  1  0.23190400  0.12105200  0.63979000  1
  C  209  1  0.01533100  0.85975800  0.39967800  1
  C  210  1  0.02384500  0.86172100  0.41984500  1
  C  211  1  0.03269500  0.84485100  0.43078200  1
  C  212  1  0.03281400  0.82513100  0.42171100  1
  C  213  1  0.02346400  0.82187000  0.40187300  1
  C  214  1  0.01470400  0.83932000  0.39116000  1
  C  217  1  0.00449000  0.87765500  0.39047600  1
  C  218  1  0.01351500  0.89825800  0.39035000  1
  C  219  1  0.00120500  0.91526800  0.38192800  1
  C  220  1  0.97911200  0.91120800  0.37394300  1
  C  221  1  0.96909100  0.89152000  0.37534900  1
  C  222  1  0.98171400  0.87530800  0.38389400  1
  C  235  1  0.51526200  0.12806500  0.11483300  1
  C  236  1  0.52378300  0.12610300  0.09466200  1
  C  237  1  0.53266200  0.14296100  0.08371600  1
  C  238  1  0.53279700  0.16267700  0.09280700  1
  C  239  1  0.52348500  0.16593400  0.11266700  1
  C  240  1  0.51465200  0.14849900  0.12335100  1
  C  243  1  0.50440600  0.11015500  0.12401600  1
  C  244  1  0.51348900  0.08957200  0.12415000  1
  C  245  1  0.50122900  0.07253600  0.13257700  1
  C  246  1  0.47912400  0.07654100  0.14055200  1
  C  247  1  0.46906500  0.09621500  0.13919300  1
  C  248  1  0.48167100  0.11247600  0.13071300  1
  C  261  1  0.26549300  0.13813400  0.39195700  1
  C  262  1  0.27508000  0.15798700  0.38993700  1
  C  263  1  0.28548300  0.16828200  0.40648700  1
  C  264  1  0.28610000  0.15864700  0.42586000  1
  C  265  1  0.27614800  0.13896700  0.42921700  1
  C  266  1  0.26617100  0.12885100  0.41198300  1
  C  269  1  0.25420200  0.12920100  0.37421400  1
  C  270  1  0.26331400  0.12897500  0.35372600  1
  C  271  1  0.25108800  0.12055600  0.33671600  1
  C  272  1  0.22904700  0.11244200  0.34077800  1
  C  273  1  0.21899000  0.11375400  0.36041400  1
  C  274  1  0.23149500  0.12243400  0.37662200  1
  C  287  1  0.76548000  0.84969800  0.12251900  1
  C  288  1  0.77507400  0.82984800  0.12454300  1
  C  289  1  0.78549300  0.81955600  0.10800100  1
  C  290  1  0.78607600  0.82917900  0.08862300  1
  C  291  1  0.77614800  0.84886800  0.08526300  1
  C  292  1  0.76617000  0.85898700  0.10249500  1
  C  295  1  0.75421300  0.85865200  0.14026300  1
  C  296  1  0.76331700  0.85885900  0.16075400  1
  C  297  1  0.75109400  0.86728500  0.17775900  1
  C  298  1  0.72904700  0.87539000  0.17370300  1
  C  299  1  0.71899300  0.87407900  0.15406600  1
  C  300  1  0.73150200  0.86540600  0.13785600  1
  C  313  1  0.50490000  0.85972700  0.11504000  1
  C  314  1  0.49655100  0.86176900  0.09480000  1
  C  315  1  0.48753200  0.84497800  0.08380700  1
  C  316  1  0.48724300  0.82523600  0.09284000  1
  C  317  1  0.49665100  0.82187500  0.11263900  1
  C  318  1  0.50551800  0.83924300  0.12340300  1
  C  321  1  0.51498300  0.87770800  0.12483300  1
  C  322  1  0.50482300  0.89778600  0.12581100  1
  C  323  1  0.51626200  0.91493700  0.13482100  1
  C  324  1  0.53869100  0.91179000  0.14251900  1
  C  325  1  0.54984400  0.89269500  0.14043000  1
  C  326  1  0.53749300  0.87594100  0.13222000  1
  C  339  1  0.00488500  0.12811400  0.39943600  1
  C  340  1  0.99652600  0.12607400  0.41967200  1
  C  341  1  0.98751400  0.14286100  0.43068300  1
  C  342  1  0.98724800  0.16260200  0.42163600  1
  C  343  1  0.99662500  0.16595500  0.40182400  1
  C  344  1  0.00551700  0.14859500  0.39107200  1
  C  347  1  0.01499500  0.11012600  0.38967400  1
  C  348  1  0.00482200  0.09005500  0.38867400  1
  C  349  1  0.01626400  0.07290300  0.37966800  1
  C  350  1  0.03869500  0.07604600  0.37197000  1
  C  351  1  0.04983200  0.09515700  0.37402300  1
  C  352  1  0.03749000  0.11190100  0.38226200  1
  C  365  1  0.25490900  0.13774300  0.12296800  1
  C  366  1  0.24541500  0.15768400  0.12493300  1
  C  367  1  0.23490600  0.16804100  0.10842400  1
  C  368  1  0.23419900  0.15845900  0.08902100  1
  C  369  1  0.24425100  0.13884000  0.08557700  1
  C  370  1  0.25426500  0.12868500  0.10281500  1
  C  373  1  0.26535500  0.12823700  0.14101200  1
  C  374  1  0.25515400  0.12757400  0.16105900  1
  C  375  1  0.26641800  0.11892800  0.17848700  1
  C  376  1  0.28861400  0.11066100  0.17534600  1
  C  377  1  0.29980600  0.11202800  0.15623200  1
  C  378  1  0.28774400  0.12038300  0.13937500  1
  C  391  1  0.75490800  0.85008900  0.39151700  1
  C  392  1  0.74541800  0.83014900  0.38955200  1
  C  393  1  0.73489900  0.81979400  0.40605800  1
  C  394  1  0.73422600  0.82936800  0.42546300  1
  C  395  1  0.74425600  0.84899600  0.42890900  1
  C  396  1  0.75426400  0.85915200  0.41166900  1
  C  399  1  0.76534000  0.85960100  0.37346900  1
  C  400  1  0.75515000  0.86025300  0.35341800  1
  C  401  1  0.76641200  0.86891100  0.33599400  1
  C  402  1  0.78860000  0.87719000  0.33914300  1
  C  403  1  0.79979100  0.87579800  0.35825600  1
  C  404  1  0.78773100  0.86744300  0.37511100  1
  C  417  1  0.50461500  0.62756600  0.11514300  1
  C  418  1  0.49500200  0.62546900  0.09536100  1
  C  419  1  0.48449200  0.64200700  0.08508500  1
  C  420  1  0.48387300  0.66146600  0.09463600  1
  C  421  1  0.49380300  0.66488300  0.11425700  1
  C  422  1  0.50382100  0.64764400  0.12438100  1
  C  425  1  0.51587700  0.60982900  0.12416300  1
  C  426  1  0.50670200  0.58931900  0.12429500  1
  C  427  1  0.51884700  0.57226000  0.13269000  1
  C  428  1  0.54096300  0.57611000  0.14063500  1
  C  429  1  0.55108200  0.59573800  0.13938300  1
  C  430  1  0.53860100  0.61215100  0.13096300  1
  C  443  1  0.00443700  0.36027600  0.39944200  1
  C  444  1  0.99481000  0.36234700  0.41920900  1
  C  445  1  0.98434700  0.34577400  0.42945600  1
  C  446  1  0.98379100  0.32631900  0.41989000  1
  C  447  1  0.99372700  0.32294200  0.40026600  1
  C  448  1  0.00371100  0.34021000  0.39016700  1
  C  451  1  0.01575900  0.37801900  0.39053000  1
  C  452  1  0.00660200  0.39852800  0.39030100  1
  C  453  1  0.01882300  0.41552200  0.38185900  1
  C  454  1  0.04089900  0.41155000  0.37381400  1
  C  455  1  0.05097900  0.39187300  0.37510500  1
  C  456  1  0.03846300  0.37561400  0.38375500  1
  C  469  1  0.25461900  0.35262100  0.12200000  1
  C  470  1  0.24607100  0.33239000  0.12391000  1
  C  471  1  0.23720900  0.32144000  0.10707200  1
  C  472  1  0.23705400  0.33056800  0.08743000  1
  C  473  1  0.24650700  0.35042400  0.08419900  1
  C  474  1  0.25528200  0.36115500  0.10160900  1
  C  477  1  0.26542100  0.36180300  0.13994100  1
  C  478  1  0.25632400  0.36192300  0.16048600  1
  C  479  1  0.26854500  0.37032600  0.17756400  1
  C  480  1  0.29058400  0.37846100  0.17349900  1
  C  481  1  0.30064300  0.37719500  0.15387100  1
  C  482  1  0.28814800  0.36855200  0.13766300  1
  C  495  1  0.75511100  0.63546200  0.39244300  1
  C  496  1  0.74621800  0.65557400  0.39062000  1
  C  497  1  0.73715100  0.66639200  0.40743200  1
  C  498  1  0.73708400  0.65724100  0.42705700  1
  C  499  1  0.74656100  0.63737500  0.43023000  1
  C  500  1  0.75554000  0.62676400  0.41279400  1
  C  503  1  0.76603700  0.62676400  0.37427900  1
  C  504  1  0.75654500  0.62684400  0.35384100  1
  C  505  1  0.76854500  0.61878800  0.33646800  1
  C  506  1  0.79058300  0.61059900  0.34015900  1
  C  507  1  0.80077700  0.61122700  0.35969400  1
  C  508  1  0.78863900  0.61948900  0.37631900  1
  C  521  1  0.01492000  0.62758300  0.39917000  1
  C  522  1  0.02439200  0.62544000  0.41902100  1
  C  523  1  0.03508300  0.64190100  0.42931200  1
  C  524  1  0.03585000  0.66137300  0.41978900  1
  C  525  1  0.02586400  0.66486900  0.40020800  1
  C  526  1  0.01574700  0.64769900  0.39005600  1
  C  529  1  0.00448000  0.60971100  0.38957300  1
  C  530  1  0.01487300  0.58975700  0.38860900  1
  C  531  1  0.00372100  0.57255800  0.37949800  1
  C  532  1  0.98144400  0.57552900  0.37143500  1
  C  533  1  0.97020200  0.59461200  0.37316300  1
  C  534  1  0.98216900  0.61148000  0.38161500  1
  C  547  1  0.51489100  0.36025000  0.11530300  1
  C  548  1  0.52438500  0.36239900  0.09546100  1
  C  549  1  0.53509800  0.34594600  0.08517100  1
  C  550  1  0.53585300  0.32647100  0.09469300  1
  C  551  1  0.52586700  0.32297300  0.11427300  1
  C  552  1  0.51573400  0.34013700  0.12442200  1
  C  555  1  0.50442600  0.37811500  0.12489300  1
  C  556  1  0.51484000  0.39805900  0.12588000  1
  C  557  1  0.50369700  0.41526200  0.13498500  1
  C  558  1  0.48142000  0.41230500  0.14304300  1
  C  559  1  0.47018400  0.39322100  0.14135700  1
  C  560  1  0.48210700  0.37635400  0.13284200  1
  C  573  1  0.26484200  0.35300100  0.39209500  1
  C  574  1  0.27328300  0.33269100  0.39022500  1
  C  575  1  0.28222600  0.32167000  0.40703100  1
  C  576  1  0.28255700  0.33077400  0.42669000  1
  C  577  1  0.27306000  0.35060500  0.42999400  1
  C  578  1  0.26416500  0.36133700  0.41258900  1
  C  581  1  0.25485700  0.36270500  0.37388800  1
  C  582  1  0.26495100  0.36324700  0.35373100  1
  C  583  1  0.25361900  0.37186400  0.33626000  1
  C  584  1  0.23147000  0.38020800  0.33948600  1
  C  585  1  0.22045000  0.37889300  0.35865700  1
  C  586  1  0.23253300  0.37066900  0.37551300  1
  C  599  1  0.76476600  0.63484600  0.12237900  1
  C  600  1  0.77326900  0.65513600  0.12426300  1
  C  601  1  0.78225300  0.66615800  0.10747500  1
  C  602  1  0.78251200  0.65708600  0.08780000  1
  C  603  1  0.77303500  0.63724800  0.08448600  1
  C  604  1  0.76413800  0.62650500  0.10188500  1
  C  607  1  0.75479600  0.62510900  0.14058800  1
  C  608  1  0.76490900  0.62458300  0.16073700  1
  C  609  1  0.75359800  0.61596100  0.17821400  1
  C  610  1  0.73145900  0.60759200  0.17500800  1
  C  611  1  0.72038500  0.60888900  0.15586200  1
  C  612  1  0.73244900  0.61715300  0.13899800  1
  C  625  1  0.51535600  0.36025000  0.90119900  1
  C  626  1  0.52295400  0.36200600  0.92167600  1
  C  627  1  0.53229200  0.34520800  0.93235000  1
  C  628  1  0.53410300  0.32597600  0.92246900  1
  C  629  1  0.52599800  0.32291400  0.90213100  1
  C  630  1  0.51655500  0.34026900  0.89178100  1
  C  633  1  0.50431200  0.37796700  0.89209400  1
  C  634  1  0.51341600  0.39849700  0.89196600  1
  C  635  1  0.50114200  0.41546400  0.88349500  1
  C  636  1  0.47904700  0.41142900  0.87551300  1
  C  637  1  0.46901000  0.39175000  0.87693500  1
  C  638  1  0.48157500  0.37551100  0.88550300  1
  C  651  1  0.01534500  0.62758300  0.61329800  1
  C  652  1  0.02294900  0.62582300  0.59282000  1
  C  653  1  0.03230100  0.64261300  0.58213700  1
  C  654  1  0.03409700  0.66184600  0.59202200  1
  C  655  1  0.02598100  0.66491900  0.61235500  1
  C  656  1  0.01653200  0.64756700  0.62270800  1
  C  659  1  0.00428400  0.60985700  0.62238700  1
  C  660  1  0.01341800  0.58933900  0.62252500  1
  C  661  1  0.00117000  0.57236000  0.63100100  1
  C  662  1  0.97907000  0.57636700  0.63898200  1
  C  663  1  0.96900700  0.59604200  0.63757800  1
  C  664  1  0.98157700  0.61230600  0.62906600  1
  C  677  1  0.76529800  0.63520400  0.89048700  1
  C  678  1  0.77294800  0.65573900  0.88874900  1
  C  679  1  0.78229900  0.66644200  0.90550100  1
  C  680  1  0.78412300  0.65649700  0.92465700  1
  C  681  1  0.77596900  0.63611100  0.92771500  1
  C  682  1  0.76649900  0.62575000  0.91040600  1
  C  685  1  0.75422500  0.62610600  0.87279600  1
  C  686  1  0.76341000  0.62595300  0.85235800  1
  C  687  1  0.75116000  0.61747000  0.83541700  1
  C  688  1  0.72912000  0.60931700  0.83940700  1
  C  689  1  0.71903400  0.61061800  0.85901800  1
  C  690  1  0.73152200  0.61935400  0.87520000  1
  C  703  1  0.26534400  0.35264400  0.62398200  1
  C  704  1  0.27298300  0.33211100  0.62573700  1
  C  705  1  0.28232200  0.32139200  0.60899400  1
  C  706  1  0.28411000  0.33132000  0.58982200  1
  C  707  1  0.27599000  0.35171700  0.58675800  1
  C  708  1  0.26654500  0.36209700  0.60406400  1
  C  711  1  0.25428500  0.36177500  0.64165700  1
  C  712  1  0.26340400  0.36192100  0.66211600  1
  C  713  1  0.25110600  0.37041100  0.67902100  1
  C  714  1  0.22905300  0.37851500  0.67499000  1
  C  715  1  0.21901400  0.37713800  0.65536400  1
  C  716  1  0.23156500  0.36845000  0.63920400  1
  C  729  1  0.00534200  0.36026700  0.61350300  1
  C  730  1  0.99773500  0.36209300  0.59299700  1
  C  731  1  0.98806200  0.34542000  0.58229000  1
  C  732  1  0.98604500  0.32617900  0.59213800  1
  C  733  1  0.99426400  0.32300400  0.61242400  1
  C  734  1  0.00394500  0.34025400  0.62279100  1
  C  737  1  0.01549400  0.37816400  0.62327300  1
  C  738  1  0.00493300  0.39804000  0.62420400  1
  C  739  1  0.01597800  0.41528600  0.63335200  1
  C  740  1  0.03829600  0.41241500  0.64137800  1
  C  741  1  0.04976900  0.39343900  0.63959100  1
  C  742  1  0.03791300  0.37654900  0.63101300  1
  C  755  1  0.50531900  0.62756900  0.90098000  1
  C  756  1  0.49770800  0.62574600  0.92148500  1
  C  757  1  0.48804000  0.64241700  0.93219900  1
  C  758  1  0.48604400  0.66165600  0.92233900  1
  C  759  1  0.49425800  0.66482900  0.90205300  1
  C  760  1  0.50394400  0.64758300  0.89169000  1
  C  763  1  0.51548400  0.60967100  0.89122800  1
  C  764  1  0.50492000  0.58979600  0.89028100  1
  C  765  1  0.51597600  0.57255400  0.88113600  1
  C  766  1  0.53829700  0.57542800  0.87311800  1
  C  767  1  0.54974500  0.59442400  0.87486900  1
  C  768  1  0.53789200  0.61129600  0.88347900  1
  C  781  1  0.75482800  0.63494900  0.62394500  1
  C  782  1  0.74737300  0.65555200  0.62577000  1
  C  783  1  0.73790500  0.66634600  0.60909800  1
  C  784  1  0.73591200  0.65645000  0.58992300  1
  C  785  1  0.74407900  0.63608500  0.58676700  1
  C  786  1  0.75360500  0.62564300  0.60398400  1
  C  789  1  0.76517300  0.62526400  0.64170100  1
  C  790  1  0.75493700  0.62420200  0.66163300  1
  C  791  1  0.76637100  0.61507600  0.67864900  1
  C  792  1  0.78881000  0.60737300  0.67549600  1
  C  793  1  0.79997000  0.60949100  0.65645600  1
  C  794  1  0.78763800  0.61782000  0.63978500  1
  C  807  1  0.25484700  0.35288100  0.89053800  1
  C  808  1  0.24738100  0.33228200  0.88870800  1
  C  809  1  0.23788900  0.32149200  0.90536900  1
  C  810  1  0.23593000  0.33137600  0.92455500  1
  C  811  1  0.24408100  0.35174800  0.92771100  1
  C  812  1  0.25361200  0.36219300  0.91049800  1
  C  815  1  0.26516900  0.36258100  0.87277700  1
  C  816  1  0.25493900  0.36362700  0.85284100  1
  C  817  1  0.26636500  0.37276500  0.83582700  1
  C  818  1  0.28879300  0.38048700  0.83898300  1
  C  819  1  0.29996300  0.37835500  0.85801500  1
  C  820  1  0.28763500  0.37001900  0.87468700  1
  C  833  1  0.99297500  0.22140500  0.62309000  1
  C  834  1  0.98000900  0.23618200  0.63413700  1
  C  835  1  0.98314700  0.25773500  0.63161400  1
  C  836  1  0.99917500  0.26586900  0.61749800  1
  C  837  1  0.01159700  0.25092700  0.60590500  1
  C  840  1  0.00854600  0.22954700  0.60873000  1
  C  844  1  0.98775200  0.20011700  0.62346200  1
  C  846  1  0.00137900  0.28709400  0.61254500  1
  C  848  1  0.49296500  0.76642200  0.89138200  1
  C  849  1  0.47998800  0.75164000  0.88035800  1
  C  850  1  0.48313900  0.73009100  0.88287000  1
  C  851  1  0.49918100  0.72196000  0.89697400  1
  C  852  1  0.51162000  0.73690000  0.90855400  1
  C  855  1  0.50852500  0.75828100  0.90575300  1
  C  859  1  0.48770300  0.78769600  0.89110000  1
  C  861  1  0.50138700  0.70073600  0.90192600  1
  C  863  1  0.74301900  0.85937100  0.53044800  1
  C  864  1  0.73006700  0.87041100  0.51567600  1
  C  865  1  0.73322100  0.86784500  0.49418800  1
  C  866  1  0.74925400  0.85368400  0.48606700  1
  C  867  1  0.76165400  0.84209400  0.50101100  1
  C  870  1  0.75857100  0.84494300  0.52233300  1
  C  874  1  0.73779300  0.85974600  0.55168200  1
  C  876  1  0.75128800  0.84856200  0.46488800  1
  C  878  1  0.24304400  0.12845600  0.98403000  1
  C  879  1  0.23007100  0.11743200  0.99880400  1
  C  880  1  0.23322400  0.11999100  0.02029500  1
  C  881  1  0.24925500  0.13415300  0.02841900  1
  C  882  1  0.26166300  0.14573300  0.01347700  1
  C  885  1  0.25857300  0.14289600  0.99215500  1
  C  889  1  0.23779000  0.12808500  0.96280500  1
  C  891  1  0.25128900  0.13927500  0.04960000  1
  C  893  1  0.52689600  0.22137300  0.89137800  1
  C  894  1  0.53988500  0.23615400  0.88036000  1
  C  895  1  0.53673700  0.25770500  0.88287400  1
  C  896  1  0.52069500  0.26583700  0.89698000  1
  C  897  1  0.50824700  0.25089900  0.90854600  1
  C  900  1  0.51135300  0.22952200  0.90575900  1
  C  904  1  0.53214800  0.20009700  0.89108400  1
  C  906  1  0.51853500  0.28705500  0.90194500  1
  C  908  1  0.02688400  0.76646700  0.62309700  1
  C  909  1  0.03985100  0.75168800  0.63414000  1
  C  910  1  0.03671700  0.73013700  0.63160800  1
  C  911  1  0.02069500  0.72200600  0.61748200  1
  C  912  1  0.00827000  0.73694700  0.60589600  1
  C  915  1  0.01131200  0.75832600  0.60873600  1
  C  919  1  0.03205100  0.78776800  0.62352500  1
  C  921  1  0.01855700  0.70078500  0.61250700  1
  C  923  1  0.77690900  0.85931600  0.98397700  1
  C  924  1  0.78985200  0.87038700  0.99872800  1
  C  925  1  0.78665800  0.86784800  0.02020700  1
  C  926  1  0.77060100  0.85369900  0.02830900  1
  C  927  1  0.75823000  0.84207400  0.01338200  1
  C  930  1  0.76131300  0.84492200  0.99207000  1
  C  934  1  0.78214900  0.85965200  0.96276300  1
  C  936  1  0.76864400  0.84852400  0.04944600  1
  C  938  1  0.27688900  0.12850300  0.53050600  1
  C  939  1  0.28982900  0.11743200  0.51575100  1
  C  940  1  0.28666000  0.11999400  0.49427100  1
  C  941  1  0.27062500  0.13416700  0.48617800  1
  C  942  1  0.25822900  0.14576900  0.50110000  1
  C  945  1  0.26130000  0.14290700  0.52241200  1
  C  949  1  0.28210700  0.12812300  0.55172700  1
  C  951  1  0.26863600  0.13931200  0.46503100  1
  C  953  1  0.02697300  0.76643400  0.38975400  1
  C  954  1  0.03987700  0.75160300  0.37872800  1
  C  955  1  0.03667600  0.73006500  0.38131400  1
  C  956  1  0.02064100  0.72199300  0.39546600  1
  C  957  1  0.00826100  0.73698400  0.40701600  1
  C  960  1  0.01137700  0.75835400  0.40413400  1
  C  964  1  0.03227600  0.78771200  0.38938800  1
  C  966  1  0.01857600  0.70079300  0.40058500  1
  C  968  1  0.52698100  0.22140900  0.12473500  1
  C  969  1  0.53989700  0.23624700  0.13573800  1
  C  970  1  0.53668200  0.25778200  0.13316000  1
  C  971  1  0.52063400  0.26585000  0.11901900  1
  C  972  1  0.50823700  0.25085900  0.10748600  1
  C  975  1  0.51139400  0.22949000  0.11034500  1
  C  979  1  0.53231500  0.20014500  0.12501700  1
  C  981  1  0.51858100  0.28705100  0.11389300  1
  C  983  1  0.49291700  0.76644500  0.12475000  1
  C  984  1  0.48000300  0.75160600  0.13575500  1
  C  985  1  0.48320600  0.73007100  0.13316100  1
  C  986  1  0.49925100  0.72200100  0.11901900  1
  C  987  1  0.51164600  0.73699400  0.10748600  1
  C  990  1  0.50849800  0.75836100  0.11035200  1
  C  994  1  0.48763600  0.78772400  0.12508900  1
  C  996  1  0.50128800  0.70079900  0.11389200  1
  C  998  1  0.99295600  0.22137900  0.38972000  1
  C  999  1  0.98002400  0.23622200  0.37873200  1
  C  1000  1  0.98321500  0.25775900  0.38132800  1
  C  1001  1  0.99925500  0.26583400  0.39547300  1
  C  1002  1  0.01165800  0.25083900  0.40699700  1
  C  1005  1  0.00851700  0.22947200  0.40413100  1
  C  1009  1  0.98767400  0.20010200  0.38932500  1
  C  1011  1  0.00128000  0.28703500  0.40060400  1
  C  1013  1  0.24295300  0.36262200  0.02891600  1
  C  1014  1  0.22999100  0.37365200  0.01414200  1
  C  1015  1  0.23314300  0.37107100  0.99266800  1
  C  1016  1  0.24918100  0.35689500  0.98460400  1
  C  1017  1  0.26161900  0.34531900  0.99952000  1
  C  1020  1  0.25849800  0.34817000  0.02082400  1
  C  1024  1  0.23765000  0.36296500  0.05012700  1
  C  1026  1  0.25136000  0.35189100  0.96346400  1
  C  1028  1  0.74292200  0.62523800  0.48557400  1
  C  1029  1  0.72998700  0.61417800  0.50034300  1
  C  1030  1  0.73315400  0.61675300  0.52181600  1
  C  1031  1  0.74918100  0.63094300  0.52987600  1
  C  1032  1  0.76159100  0.64254400  0.51495700  1
  C  1035  1  0.75850900  0.63965900  0.49365300  1
  C  1039  1  0.73765000  0.62485500  0.46435000  1
  C  1041  1  0.75134900  0.63595500  0.55101500  1
  C  1043  1  0.27695600  0.36255500  0.48548000  1
  C  1044  1  0.28990700  0.37361400  0.50024300  1
  C  1045  1  0.28673700  0.37107700  0.52172900  1
  C  1046  1  0.27068100  0.35693600  0.52983100  1
  C  1047  1  0.25829500  0.34530300  0.51491400  1
  C  1050  1  0.26136700  0.34816000  0.49359800  1
  C  1054  1  0.28220700  0.36284400  0.46423700  1
  C  1056  1  0.26857600  0.35188900  0.55098300  1
  C  1058  1  0.77693600  0.62526700  0.02900800  1
  C  1059  1  0.78988500  0.61420500  0.01424200  1
  C  1060  1  0.78673800  0.61676400  0.99275600  1
  C  1061  1  0.77070500  0.63092600  0.98465500  1
  C  1062  1  0.75829300  0.64253900  0.99957100  1
  C  1065  1  0.76135900  0.63967400  0.02088700  1
  C  1069  1  0.78216800  0.62493500  0.05025700  1
  C  1071  1  0.76856500  0.63594100  0.96349500  1
  C  1073  1  0.97567100  0.13248400  0.48466300  1
  C  1074  1  0.96268100  0.12071200  0.49872700  1
  C  1075  1  0.96553700  0.12284900  0.52015600  1
  C  1076  1  0.98164500  0.13680400  0.52828500  1
  C  1077  1  0.99423600  0.14906700  0.51428800  1
  C  1080  1  0.99128600  0.14677000  0.49302800  1
  C  1084  1  0.97448800  0.12916900  0.46346400  1
  C  1086  1  0.98875900  0.13611000  0.54861300  1
  C  1088  1  0.47566200  0.85534600  0.02982000  1
  C  1089  1  0.46268200  0.86712300  0.01575600  1
  C  1090  1  0.46554000  0.86499100  0.99432700  1
  C  1091  1  0.48164500  0.85103300  0.98620000  1
  C  1092  1  0.49421500  0.83874900  0.00019200  1
  C  1095  1  0.49128000  0.84106200  0.02145400  1
  C  1099  1  0.47449400  0.85867400  0.05101800  1
  C  1101  1  0.48876200  0.85172300  0.96587300  1
  C  1103  1  0.72576400  0.72049900  0.61909000  1
  C  1104  1  0.71272200  0.73457900  0.63083000  1
  C  1105  1  0.71553600  0.75609000  0.62871700  1
  C  1106  1  0.73163500  0.76427100  0.61480900  1
  C  1107  1  0.74421500  0.75026100  0.60254800  1
  C  1110  1  0.74132600  0.72893800  0.60484100  1
  C  1114  1  0.72472500  0.69921100  0.62232500  1
  C  1116  1  0.73875700  0.78465600  0.61548200  1
  C  1118  1  0.22576000  0.26733700  0.89540600  1
  C  1119  1  0.21272300  0.25326300  0.88365700  1
  C  1120  1  0.21551800  0.23175000  0.88577400  1
  C  1121  1  0.23162500  0.22356400  0.89967000  1
  C  1122  1  0.24420500  0.23756800  0.91193500  1
  C  1125  1  0.24132500  0.25889200  0.90964900  1
  C  1129  1  0.22473800  0.28862400  0.89215900  1
  C  1131  1  0.23874200  0.20317700  0.89896200  1
  C  1133  1  0.54423600  0.13250300  0.02974800  1
  C  1134  1  0.55721500  0.12072600  0.01568300  1
  C  1135  1  0.55433800  0.12285100  0.99425000  1
  C  1136  1  0.53820400  0.13678500  0.98612000  1
  C  1137  1  0.52567300  0.14908200  0.00013200  1
  C  1140  1  0.52860300  0.14677300  0.02139100  1
  C  1144  1  0.54545200  0.12921100  0.05093800  1
  C  1146  1  0.53101300  0.13606300  0.96580200  1
  C  1148  1  0.04422400  0.85534600  0.48474300  1
  C  1149  1  0.05721000  0.86710700  0.49881400  1
  C  1150  1  0.05434700  0.86495400  0.52024500  1
  C  1151  1  0.03819700  0.85102100  0.52836400  1
  C  1152  1  0.02564400  0.83875700  0.51433700  1
  C  1155  1  0.02860100  0.84105900  0.49308300  1
  C  1159  1  0.04546600  0.85862700  0.46355400  1
  C  1161  1  0.03100500  0.85173200  0.54868500  1
  C  1163  1  0.79412800  0.72057700  0.89540100  1
  C  1164  1  0.80716200  0.73465600  0.88365900  1
  C  1165  1  0.80435400  0.75616900  0.88578600  1
  C  1166  1  0.78825400  0.76436600  0.89969100  1
  C  1167  1  0.77565900  0.75032400  0.91191400  1
  C  1170  1  0.77856300  0.72900400  0.90964400  1
  C  1174  1  0.79521200  0.69929500  0.89220700  1
  C  1176  1  0.78101800  0.78473100  0.89896800  1
  C  1178  1  0.29413000  0.26725600  0.61907200  1
  C  1179  1  0.30717800  0.25318300  0.63081000  1
  C  1180  1  0.30434600  0.23167100  0.62870900  1
  C  1181  1  0.28824100  0.22348100  0.61480900  1
  C  1182  1  0.27565600  0.23750600  0.60256200  1
  C  1185  1  0.27856500  0.25882600  0.60482700  1
  C  1189  1  0.29520400  0.28853500  0.62227300  1
  C  1191  1  0.28102900  0.20310500  0.61553700  1
  C  1193  1  0.29422100  0.26746800  0.39693300  1
  C  1194  1  0.30720100  0.25333400  0.38521900  1
  C  1195  1  0.30428500  0.23184300  0.38734300  1
  C  1196  1  0.28813600  0.22373000  0.40124100  1
  C  1197  1  0.27563200  0.23778100  0.41350900  1
  C  1200  1  0.27862500  0.25910600  0.41121100  1
  C  1204  1  0.29540600  0.28872500  0.39355700  1
  C  1206  1  0.28082800  0.20340600  0.40040100  1
  C  1208  1  0.79422900  0.72037100  0.11753200  1
  C  1209  1  0.80720400  0.73450300  0.12925400  1
  C  1210  1  0.80428600  0.75599200  0.12713400  1
  C  1211  1  0.78814400  0.76410800  0.11323100  1
  C  1212  1  0.77565500  0.75006200  0.10094200  1
  C  1215  1  0.77863100  0.72873600  0.10325500  1
  C  1219  1  0.79538400  0.69911400  0.12092600  1
  C  1221  1  0.78083400  0.78443200  0.11409300  1
  C  1223  1  0.22562700  0.26733400  0.11752300  1
  C  1224  1  0.21266800  0.25320600  0.12925700  1
  C  1225  1  0.21561700  0.23171500  0.12714900  1
  C  1226  1  0.23177700  0.22359300  0.11325700  1
  C  1227  1  0.24423300  0.23766300  0.10096100  1
  C  1230  1  0.24125500  0.25898200  0.10327200  1
  C  1234  1  0.22439000  0.28858500  0.12080800  1
  C  1236  1  0.23922400  0.20328300  0.11413100  1
  C  1238  1  0.72562000  0.72049700  0.39698300  1
  C  1239  1  0.71267100  0.73461800  0.38523200  1
  C  1240  1  0.71560100  0.75611200  0.38734000  1
  C  1241  1  0.73177100  0.76424200  0.40121800  1
  C  1242  1  0.74422500  0.75017800  0.41352100  1
  C  1245  1  0.74125100  0.72885600  0.41122500  1
  C  1249  1  0.72439500  0.69924600  0.39370000  1
  C  1251  1  0.73921200  0.78455300  0.40031200  1
  C  1253  1  0.47573600  0.63252700  0.98617900  1
  C  1254  1  0.46271000  0.62075700  0.00023500  1
  C  1255  1  0.46558900  0.62285900  0.02167600  1
  C  1256  1  0.48175100  0.63677400  0.02980500  1
  C  1257  1  0.49421700  0.64913400  0.01582500  1
  C  1260  1  0.49129400  0.64683700  0.99457200  1
  C  1264  1  0.47472400  0.62923000  0.96496200  1
  C  1266  1  0.48907400  0.63589300  0.05006000  1
  C  1268  1  0.97575100  0.35531700  0.52831200  1
  C  1269  1  0.96271700  0.36707100  0.51425200  1
  C  1270  1  0.96558000  0.36494100  0.49281300  1
  C  1271  1  0.98175100  0.35102500  0.48470000  1
  C  1272  1  0.99425200  0.33870200  0.49868600  1
  C  1275  1  0.99129700  0.34098900  0.51993400  1
  C  1279  1  0.97472100  0.35861400  0.54952800  1
  C  1281  1  0.98904700  0.35188600  0.46444000  1
  C  1283  1  0.04414900  0.63252700  0.52820800  1
  C  1284  1  0.05717300  0.62075300  0.51416400  1
  C  1285  1  0.05430100  0.62287500  0.49272700  1
  C  1286  1  0.03816100  0.63681100  0.48459000  1
  C  1287  1  0.02564700  0.64912000  0.49859200  1
  C  1290  1  0.02859800  0.64684800  0.51983700  1
  C  1294  1  0.04522400  0.62929000  0.54941000  1
  C  1296  1  0.03072400  0.63590100  0.46436200  1
  C  1298  1  0.54414900  0.35531100  0.98627500  1
  C  1299  1  0.55718200  0.36707600  0.00031900  1
  C  1300  1  0.55428600  0.36497700  0.02175400  1
  C  1301  1  0.53814200  0.35104100  0.02988000  1
  C  1302  1  0.52564000  0.33871300  0.01588900  1
  C  1305  1  0.52859100  0.34099200  0.99464600  1
  C  1309  1  0.54522200  0.35854600  0.96507400  1
  C  1311  1  0.53072200  0.35192800  0.05011800  1
  C  1313  1  0.11094900  0.10093400  0.65054600  1
  C  1314  1  0.12714800  0.08957000  0.66185700  1
  C  1315  1  0.15070800  0.09232600  0.65879700  1
  C  1316  1  0.15904800  0.10677900  0.64444400  1
  C  1317  1  0.14281700  0.11834800  0.63293500  1
  C  1320  1  0.11926800  0.11525900  0.63608000  1
  C  1324  1  0.08770000  0.09809500  0.65395500  1
  C  1326  1  0.18239000  0.10902700  0.64131000  1
  C  1328  1  0.61095400  0.88688600  0.86391000  1
  C  1329  1  0.62715800  0.89825900  0.85261500  1
  C  1330  1  0.65071800  0.89551300  0.85569300  1
  C  1331  1  0.65905300  0.88105900  0.87005000  1
  C  1332  1  0.64281500  0.86948800  0.88155200  1
  C  1335  1  0.61926500  0.87257200  0.87838900  1
  C  1339  1  0.58770300  0.88969500  0.86047400  1
  C  1341  1  0.68239300  0.87880500  0.87317900  1
  C  1343  1  0.86095200  0.88686700  0.65065800  1
  C  1344  1  0.87716800  0.89826000  0.66191800  1
  C  1345  1  0.90072200  0.89522500  0.65911400  1
  C  1346  1  0.90904300  0.88080500  0.64472100  1
  C  1347  1  0.89279800  0.86924800  0.63321400  1
  C  1350  1  0.86925200  0.87236900  0.63635200  1
  C  1354  1  0.83771000  0.89020500  0.65364400  1
  C  1356  1  0.93238000  0.87763700  0.64249100  1
  C  1358  1  0.36095600  0.10095700  0.86388100  1
  C  1359  1  0.37716800  0.08959800  0.85258300  1
  C  1360  1  0.40072600  0.09265900  0.85535600  1
  C  1361  1  0.40905100  0.10706900  0.86975900  1
  C  1362  1  0.39280800  0.11861900  0.88127500  1
  C  1365  1  0.36926100  0.11547000  0.87816800  1
  C  1369  1  0.33770800  0.09754200  0.86101200  1
  C  1371  1  0.43239000  0.11021500  0.87201100  1
  C  1373  1  0.90896100  0.88716600  0.36247600  1
  C  1374  1  0.89243700  0.89825200  0.35126100  1
  C  1375  1  0.86894500  0.89526400  0.35462000  1
  C  1376  1  0.86094400  0.88083900  0.36919100  1
  C  1377  1  0.87755700  0.86936200  0.38038900  1
  C  1380  1  0.90099500  0.87270700  0.37694700  1
  C  1384  1  0.93216600  0.89057600  0.35922300  1
  C  1386  1  0.83764100  0.87808500  0.37251300  1
  C  1388  1  0.40901900  0.10080900  0.15200900  1
  C  1389  1  0.39255800  0.08963500  0.16320300  1
  C  1390  1  0.36904800  0.09252100  0.15982200  1
  C  1391  1  0.36098000  0.10695100  0.14527800  1
  C  1392  1  0.37755700  0.11847400  0.13407600  1
  C  1395  1  0.40100400  0.11522100  0.13752500  1
  C  1399  1  0.43224100  0.09770800  0.15537000  1
  C  1401  1  0.33766200  0.10970300  0.14198700  1
  C  1403  1  0.15903100  0.10094300  0.36536800  1
  C  1404  1  0.14286500  0.08967800  0.35395800  1
  C  1405  1  0.11931200  0.09281500  0.35664600  1
  C  1406  1  0.11090200  0.10714300  0.37114100  1
  C  1407  1  0.12719100  0.11874000  0.38263400  1
  C  1410  1  0.15071600  0.11546700  0.37959900  1
  C  1414  1  0.18227200  0.09745100  0.36270900  1
  C  1416  1  0.08751900  0.10943700  0.37423400  1
  C  1418  1  0.65903600  0.88690000  0.14912300  1
  C  1419  1  0.64286300  0.89816000  0.16053300  1
  C  1420  1  0.61931100  0.89502400  0.15783100  1
  C  1421  1  0.61091000  0.88069800  0.14333100  1
  C  1422  1  0.62720600  0.86909900  0.13184900  1
  C  1425  1  0.65072800  0.87237800  0.13488900  1
  C  1429  1  0.68227500  0.89038500  0.15179700  1
  C  1431  1  0.58752700  0.87841000  0.14021500  1
  C  1433  1  0.61076200  0.60120600  0.15174400  1
  C  1434  1  0.62687700  0.58962500  0.16291200  1
  C  1435  1  0.65047200  0.59213500  0.15960400  1
  C  1436  1  0.65892800  0.60667500  0.14530300  1
  C  1437  1  0.64255900  0.61814800  0.13381600  1
  C  1440  1  0.61905600  0.61537200  0.13718600  1
  C  1444  1  0.58752900  0.59931300  0.15541900  1
  C  1446  1  0.68221000  0.61117800  0.14373000  1
  C  1448  1  0.11098500  0.38703800  0.36247000  1
  C  1449  1  0.12739000  0.39843400  0.35144800  1
  C  1450  1  0.15090500  0.39566100  0.35488100  1
  C  1451  1  0.15907000  0.38103600  0.36921400  1
  C  1452  1  0.14248700  0.36972200  0.38061200  1
  C  1455  1  0.11902700  0.37273300  0.37705000  1
  C  1459  1  0.08777600  0.38976400  0.35880600  1
  C  1461  1  0.18231700  0.37646200  0.37087000  1
  C  1463  1  0.36071900  0.38985500  0.14913000  1
  C  1464  1  0.37712400  0.40095900  0.16045600  1
  C  1465  1  0.40063800  0.39755100  0.15768000  1
  C  1466  1  0.40878900  0.38315100  0.14312000  1
  C  1467  1  0.39223400  0.37170600  0.13183400  1
  C  1470  1  0.36877700  0.37525000  0.13485200  1
  C  1474  1  0.33750400  0.39345600  0.15196400  1
  C  1476  1  0.43200600  0.38145800  0.13856900  1
  C  1478  1  0.86079700  0.59917700  0.36493600  1
  C  1479  1  0.87718000  0.58811500  0.35351300  1
  C  1480  1  0.90069300  0.59117700  0.35651100  1
  C  1481  1  0.90887900  0.60528700  0.37130500  1
  C  1482  1  0.89235000  0.61691900  0.38245500  1
  C  1485  1  0.86881600  0.61361600  0.37934500  1
  C  1489  1  0.83872400  0.59152300  0.36609800  1
  C  1491  1  0.93207800  0.60644500  0.37615600  1
  C  1493  1  0.40913800  0.38708100  0.86407000  1
  C  1494  1  0.39303300  0.39850300  0.85274500  1
  C  1495  1  0.36946800  0.39579200  0.85577100  1
  C  1496  1  0.36099700  0.38128100  0.87005200  1
  C  1497  1  0.37722600  0.36976700  0.88169100  1
  C  1500  1  0.40076000  0.37280000  0.87851100  1
  C  1504  1  0.43238100  0.38979100  0.86072400  1
  C  1506  1  0.33760900  0.37817200  0.87227500  1
  C  1508  1  0.90915500  0.60077700  0.65046000  1
  C  1509  1  0.89305000  0.58934500  0.66177200  1
  C  1510  1  0.86948400  0.59203500  0.65872200  1
  C  1511  1  0.86101200  0.60654900  0.64444200  1
  C  1512  1  0.87725100  0.61809400  0.63284000  1
  C  1515  1  0.90078300  0.61506200  0.63602400  1
  C  1519  1  0.93240100  0.59811000  0.65381800  1
  C  1521  1  0.83762100  0.60964300  0.64219300  1
  C  1523  1  0.65894900  0.59781000  0.86388700  1
  C  1524  1  0.64240900  0.58669000  0.85273000  1
  C  1525  1  0.61892100  0.59021700  0.85559600  1
  C  1526  1  0.61096900  0.60485800  0.86997800  1
  C  1527  1  0.62760100  0.61599500  0.88147500  1
  C  1530  1  0.65102900  0.61241100  0.87823300  1
  C  1534  1  0.68215900  0.59427200  0.86084100  1
  C  1536  1  0.58770400  0.60839000  0.87265800  1
  C  1538  1  0.15897300  0.39000700  0.65065200  1
  C  1539  1  0.14243700  0.40116500  0.66177500  1
  C  1540  1  0.11895100  0.39766800  0.65887200  1
  C  1541  1  0.11100100  0.38302300  0.64449100  1
  C  1542  1  0.12763500  0.37187900  0.63300200  1
  C  1545  1  0.15105700  0.37543800  0.63627500  1
  C  1549  1  0.18217500  0.39343500  0.65382000  1
  C  1551  1  0.08773600  0.37949300  0.64180400  1
  C  1553  1  0.01116600  0.01603300  0.63562400  1
  C  1554  1  0.02451800  0.00140200  0.64646100  1
  C  1555  1  0.02298800  0.97995800  0.64272800  1
  C  1556  1  0.00773800  0.97180700  0.62798400  1
  C  1557  1  0.99428200  0.98660000  0.61707200  1
  C  1560  1  0.99617300  0.00800500  0.62077600  1
  C  1564  1  0.01250300  0.03713900  0.64058700  1
  C  1566  1  0.00317100  0.95047500  0.62580600  1
  C  1568  1  0.51115000  0.97180600  0.87885800  1
  C  1569  1  0.52450700  0.98643200  0.86802000  1
  C  1570  1  0.52298300  0.00787500  0.87175100  1
  C  1571  1  0.50774000  0.01602700  0.88649900  1
  C  1572  1  0.49430400  0.00124000  0.89744000  1
  C  1575  1  0.49616900  0.97983800  0.89371300  1
  C  1579  1  0.51248600  0.95070100  0.87389700  1
  C  1581  1  0.50317600  0.03735900  0.88867400  1
  C  1583  1  0.76116900  0.87191800  0.73518300  1
  C  1584  1  0.77451900  0.88278600  0.74977300  1
  C  1585  1  0.77298400  0.87904400  0.77114800  1
  C  1586  1  0.75773900  0.86425000  0.77927100  1
  C  1587  1  0.74430700  0.85327800  0.76452500  1
  C  1590  1  0.74618600  0.85701300  0.74318900  1
  C  1594  1  0.76251800  0.87692000  0.71414200  1
  C  1596  1  0.75317000  0.86207200  0.80053400  1
  C  1598  1  0.26115900  0.11593400  0.77929100  1
  C  1599  1  0.27450600  0.10505300  0.76470700  1
  C  1600  1  0.27298500  0.10879800  0.74333000  1
  C  1601  1  0.25774000  0.12358900  0.73520300  1
  C  1602  1  0.24431300  0.13456800  0.74994600  1
  C  1605  1  0.24617000  0.13082800  0.77128000  1
  C  1609  1  0.26247900  0.11093400  0.80032700  1
  C  1611  1  0.25316100  0.12575500  0.71394000  1
  C  1613  1  0.00863800  0.97178400  0.37728300  1
  C  1614  1  0.99533200  0.98644200  0.36643200  1
  C  1615  1  0.99691800  0.00788900  0.37014100  1
  C  1616  1  0.01218800  0.01602500  0.38487500  1
  C  1617  1  0.02558300  0.00121600  0.39582100  1
  C  1620  1  0.02367100  0.97981100  0.39210400  1
  C  1624  1  0.00725300  0.95066400  0.37232100  1
  C  1626  1  0.01675300  0.03735600  0.38705200  1
  C  1628  1  0.50868500  0.01604400  0.13719100  1
  C  1629  1  0.49535800  0.00140000  0.14803700  1
  C  1630  1  0.49691700  0.97995300  0.14432200  1
  C  1631  1  0.51219600  0.97180800  0.12960000  1
  C  1632  1  0.52562300  0.98660600  0.11867100  1
  C  1635  1  0.52369000  0.00801400  0.12234800  1
  C  1639  1  0.50733200  0.03715900  0.14216700  1
  C  1641  1  0.51676700  0.95047600  0.12744200  1
  C  1643  1  0.25860500  0.11604000  0.28013500  1
  C  1644  1  0.24530200  0.10510100  0.26553300  1
  C  1645  1  0.24686300  0.10867000  0.24409300  1
  C  1646  1  0.26210300  0.12337300  0.23578800  1
  C  1647  1  0.27548700  0.13439300  0.25055400  1
  C  1650  1  0.27358100  0.13087400  0.27195800  1
  C  1654  1  0.25716900  0.11111600  0.30126600  1
  C  1656  1  0.26720100  0.12510000  0.21448800  1
  C  1658  1  0.75859300  0.87179500  0.23434900  1
  C  1659  1  0.74528700  0.88273000  0.24895200  1
  C  1660  1  0.74686700  0.87917500  0.27039300  1
  C  1661  1  0.76213400  0.86449000  0.27868900  1
  C  1662  1  0.77549300  0.85344500  0.26392500  1
  C  1665  1  0.77358000  0.85696800  0.24252200  1
  C  1669  1  0.75715300  0.87672300  0.21321700  1
  C  1671  1  0.76720100  0.86272900  0.29999600  1
  C  1673  1  0.51111600  0.51601700  0.13723700  1
  C  1674  1  0.52451200  0.50142000  0.14805400  1
  C  1675  1  0.52304400  0.47999800  0.14426000  1
  C  1676  1  0.50783700  0.47188800  0.12946500  1
  C  1677  1  0.49429900  0.48664100  0.11859600  1
  C  1680  1  0.49613700  0.50802600  0.12236100  1
  C  1684  1  0.51237800  0.53707400  0.14226800  1
  C  1686  1  0.50336700  0.45058800  0.12723800  1
  C  1688  1  0.01113700  0.47181300  0.37723700  1
  C  1689  1  0.02452500  0.48641800  0.36641700  1
  C  1690  1  0.02304400  0.50784000  0.37020600  1
  C  1691  1  0.00784200  0.51594000  0.38500900  1
  C  1692  1  0.99433000  0.50118400  0.39589900  1
  C  1695  1  0.99615800  0.47980300  0.39211300  1
  C  1699  1  0.01245700  0.45074600  0.37224000  1
  C  1701  1  0.00337600  0.53723700  0.38724500  1
  C  1703  1  0.26127800  0.37491900  0.23432400  1
  C  1704  1  0.27456400  0.38587900  0.24893800  1
  C  1705  1  0.27296600  0.38237900  0.27039900  1
  C  1706  1  0.25768900  0.36772800  0.27875000  1
  C  1707  1  0.24437900  0.35663500  0.26397800  1
  C  1710  1  0.24628900  0.36012400  0.24255800  1
  C  1714  1  0.26271400  0.37978600  0.21314000  1
  C  1716  1  0.25263400  0.36596500  0.30009400  1
  C  1718  1  0.76100200  0.61292700  0.28008100  1
  C  1719  1  0.77443600  0.60196200  0.26557600  1
  C  1720  1  0.77295900  0.60546500  0.24410200  1
  C  1721  1  0.75769300  0.62010900  0.23570100  1
  C  1722  1  0.74436000  0.63124300  0.25041600  1
  C  1725  1  0.74614200  0.62777100  0.27181600  1
  C  1729  1  0.76217900  0.60829900  0.30128000  1
  C  1731  1  0.75263400  0.62185100  0.21436600  1
  C  1733  1  0.50869200  0.47178200  0.87880900  1
  C  1734  1  0.49532800  0.48640400  0.86799000  1
  C  1735  1  0.49679600  0.50782100  0.87181600  1
  C  1736  1  0.51196800  0.51591300  0.88665200  1
  C  1737  1  0.52551700  0.50114300  0.89749100  1
  C  1740  1  0.52370700  0.47976600  0.89366200  1
  C  1744  1  0.50737500  0.45070800  0.87380600  1
  C  1746  1  0.51632900  0.53722500  0.88894300  1
  C  1748  1  0.00871800  0.51605100  0.63566500  1
  C  1749  1  0.99534200  0.50143700  0.64648200  1
  C  1750  1  0.99679300  0.48002000  0.64265300  1
  C  1751  1  0.01197300  0.47192200  0.62782800  1
  C  1752  1  0.02555400  0.48668400  0.61700700  1
  C  1755  1  0.02371100  0.50806600  0.62079500  1
  C  1759  1  0.00741800  0.53712000  0.64067700  1
  C  1761  1  0.01634500  0.45060800  0.62555100  1
  C  1763  1  0.75875500  0.61273400  0.77924800  1
  C  1764  1  0.74538200  0.60186400  0.76468300  1
  C  1765  1  0.74691500  0.60561000  0.74331500  1
  C  1766  1  0.76217200  0.62040200  0.73521200  1
  C  1767  1  0.77562600  0.63136000  0.74994100  1
  C  1770  1  0.77372500  0.62765400  0.77126900  1
  C  1774  1  0.75742400  0.60775800  0.80026800  1
  C  1776  1  0.76680000  0.62253800  0.71398200  1
  C  1778  1  0.25868200  0.37511300  0.73522200  1
  C  1779  1  0.24533700  0.38597900  0.74981000  1
  C  1780  1  0.24691400  0.38224200  0.77117600  1
  C  1781  1  0.26219300  0.36745900  0.77925700  1
  C  1782  1  0.27562000  0.35649200  0.76451400  1
  C  1785  1  0.27368100  0.36020400  0.74318600  1
  C  1789  1  0.25730000  0.38010600  0.71420300  1
  C  1791  1  0.26679700  0.36528900  0.80049100  1
  N  23  1  0.07335600  0.09868600  0.63908300  1
  N  24  1  0.01274500  0.05244100  0.62777800  1
  N  25  1  0.00083600  0.18571500  0.61625600  1
  N  26  1  0.97624200  0.14038700  0.56426500  1
  N  49  1  0.57336900  0.88921500  0.87535700  1
  N  50  1  0.51272700  0.93540000  0.88670600  1
  N  51  1  0.50081300  0.80214000  0.89819000  1
  N  52  1  0.47624800  0.84744400  0.95022000  1
  N  75  1  0.82333800  0.87533200  0.65267500  1
  N  76  1  0.76274300  0.86406500  0.69889300  1
  N  77  1  0.75084500  0.85244900  0.56603100  1
  N  78  1  0.72621700  0.80035000  0.61125400  1
  N  101  1  0.32334600  0.11244400  0.86168000  1
  N  102  1  0.26272800  0.12379600  0.81557200  1
  N  103  1  0.25083900  0.13537500  0.94844900  1
  N  104  1  0.22622300  0.18748600  0.90324900  1
  N  127  1  0.44716100  0.09554400  0.87210600  1
  N  128  1  0.51238200  0.05343400  0.88018800  1
  N  129  1  0.51895600  0.18568700  0.89811400  1
  N  130  1  0.54343300  0.14017100  0.95004100  1
  N  153  1  0.94716300  0.89229800  0.64238800  1
  N  154  1  0.01237700  0.93439400  0.63428400  1
  N  155  1  0.01894800  0.80212000  0.61624500  1
  N  156  1  0.04346300  0.84767700  0.56443700  1
  N  179  1  0.69715900  0.87870000  0.85855000  1
  N  180  1  0.76237800  0.87057500  0.81656500  1
  N  181  1  0.76896200  0.85258600  0.94840000  1
  N  182  1  0.79346400  0.80053900  0.90300500  1
  N  205  1  0.19715900  0.10913400  0.65593700  1
  N  206  1  0.26237700  0.11725300  0.69791400  1
  N  207  1  0.26895400  0.13529500  0.56606500  1
  N  208  1  0.29346900  0.18730500  0.61146100  1
  N  231  1  0.94670300  0.88863000  0.37383400  1
  N  232  1  0.00711100  0.93534300  0.38511600  1
  N  233  1  0.01913800  0.80204900  0.39661400  1
  N  234  1  0.03612400  0.84601800  0.45089300  1
  N  257  1  0.44664500  0.09889000  0.14057700  1
  N  258  1  0.50714300  0.05247000  0.12936100  1
  N  259  1  0.51915300  0.18576600  0.11790200  1
  N  260  1  0.53609300  0.14180400  0.06360500  1
  N  283  1  0.19654900  0.11242500  0.36300300  1
  N  284  1  0.25711000  0.12380600  0.31668700  1
  N  285  1  0.27683300  0.13076200  0.44858200  1
  N  286  1  0.29316100  0.18764200  0.40481300  1
  N  309  1  0.69655400  0.87541300  0.15146900  1
  N  310  1  0.75708000  0.86403100  0.19779800  1
  N  311  1  0.77682600  0.85707800  0.06590200  1
  N  312  1  0.79316400  0.80019300  0.10966400  1
  N  335  1  0.57233500  0.89215200  0.14416700  1
  N  336  1  0.50741200  0.93438600  0.13577200  1
  N  337  1  0.50083200  0.80203200  0.11789600  1
  N  338  1  0.48397600  0.84617000  0.06370000  1
  N  361  1  0.07233100  0.09568400  0.37032100  1
  N  362  1  0.00741600  0.05345300  0.37871800  1
  N  363  1  0.00082000  0.18581000  0.39662900  1
  N  364  1  0.98397400  0.14167500  0.45078600  1
  N  387  1  0.32228600  0.10803200  0.15599000  1
  N  388  1  0.25729500  0.11829900  0.19793000  1
  N  389  1  0.24341200  0.13066400  0.06616400  1
  N  390  1  0.22698600  0.18735100  0.11010400  1
  N  413  1  0.82226900  0.87975400  0.35850700  1
  N  414  1  0.75730000  0.86955200  0.31654700  1
  N  415  1  0.74341600  0.85717400  0.44832300  1
  N  416  1  0.72698900  0.80048100  0.40439100  1
  N  439  1  0.57357000  0.59777200  0.14033800  1
  N  440  1  0.51282600  0.55229400  0.12939600  1
  N  441  1  0.49308600  0.68430400  0.12241700  1
  N  442  1  0.47676800  0.64029500  0.06579700  1
  N  465  1  0.07340900  0.38934300  0.37366500  1
  N  466  1  0.01280000  0.43550900  0.38510000  1
  N  467  1  0.99304600  0.30352600  0.39209200  1
  N  468  1  0.97667300  0.34747300  0.44875000  1
  N  491  1  0.32307300  0.37861100  0.15119800  1
  N  492  1  0.26260300  0.36712300  0.19767100  1
  N  493  1  0.25078600  0.35569700  0.06441600  1
  N  494  1  0.23374900  0.30127900  0.10824500  1
  N  517  1  0.82001000  0.60116900  0.36295700  1
  N  518  1  0.76219100  0.62138900  0.31640200  1
  N  519  1  0.75078000  0.63210700  0.45004100  1
  N  520  1  0.73368600  0.68655400  0.40630900  1
  N  543  1  0.94804400  0.59544400  0.36814000  1
  N  544  1  0.01270400  0.55320300  0.37869800  1
  N  545  1  0.02670200  0.68427800  0.39204400  1
  N  546  1  0.04297400  0.64014600  0.44854900  1
  N  569  1  0.44801800  0.39255100  0.14634000  1
  N  570  1  0.51268500  0.43461600  0.13578500  1
  N  571  1  0.52671000  0.30356300  0.12243400  1
  N  572  1  0.54298200  0.34770100  0.06593100  1
  N  595  1  0.19827200  0.38393600  0.35950700  1
  N  596  1  0.26261500  0.37254100  0.31672700  1
  N  597  1  0.26896100  0.35588400  0.44985200  1
  N  598  1  0.28579800  0.30149400  0.40589300  1
  N  621  1  0.69819800  0.60375400  0.15508700  1
  N  622  1  0.76261600  0.61528200  0.19773700  1
  N  623  1  0.76895400  0.63199500  0.06461900  1
  N  624  1  0.78581800  0.68633900  0.10857000  1
  N  647  1  0.44659900  0.38910800  0.87567500  1
  N  648  1  0.50710100  0.43548000  0.88668200  1
  N  649  1  0.52720100  0.30356600  0.89382000  1
  N  650  1  0.53558900  0.34602300  0.95248300  1
  N  673  1  0.94658800  0.59859600  0.63883600  1
  N  674  1  0.00712300  0.55234500  0.62779700  1
  N  675  1  0.02718700  0.68427200  0.62065800  1
  N  676  1  0.03558200  0.64180700  0.56200300  1
  N  699  1  0.69661000  0.60910600  0.86168400  1
  N  700  1  0.75718900  0.62065900  0.81546700  1
  N  701  1  0.77717100  0.62777400  0.94701400  1
  N  702  1  0.78557700  0.68665200  0.90468400  1
  N  725  1  0.19661400  0.37862200  0.65261500  1
  N  726  1  0.25707400  0.36722200  0.69899000  1
  N  727  1  0.27717700  0.36005800  0.56746300  1
  N  728  1  0.28558700  0.30118100  0.60978800  1
  N  751  1  0.07224500  0.39342400  0.64344700  1
  N  752  1  0.00700100  0.43465600  0.63412800  1
  N  753  1  0.99288000  0.30365300  0.62071700  1
  N  754  1  0.98455200  0.34624900  0.56215900  1
  N  777  1  0.57222600  0.59444100  0.87105500  1
  N  778  1  0.50700200  0.55318300  0.88036000  1
  N  779  1  0.49287500  0.68418000  0.89376000  1
  N  780  1  0.48454800  0.64159900  0.95233100  1
  N  803  1  0.82245300  0.60569400  0.65591400  1
  N  804  1  0.75747500  0.61410400  0.69798600  1
  N  805  1  0.74277200  0.62776500  0.56748700  1
  N  806  1  0.73449500  0.68655100  0.60994800  1
  N  829  1  0.32244500  0.38214800  0.85855900  1
  N  830  1  0.25748300  0.37374200  0.81648500  1
  N  831  1  0.24276800  0.36006700  0.94699200  1
  N  832  1  0.23448700  0.30128700  0.90454800  1
  O  8  1  0.97765600  0.17778800  0.57943600  1
  O  15  1  0.05337900  0.06108300  0.64760000  1
  O  17  1  0.01597000  0.15242200  0.63996300  1
  O  18  1  0.98572000  0.08527200  0.61441700  1
  O  34  1  0.47760300  0.81007900  0.93504800  1
  O  41  1  0.55334400  0.92677000  0.86687300  1
  O  43  1  0.51596600  0.83544000  0.87450500  1
  O  44  1  0.48571000  0.90255500  0.90007400  1
  O  60  1  0.72772500  0.81555000  0.57393400  1
  O  67  1  0.80342400  0.88390600  0.69024300  1
  O  69  1  0.76597200  0.87626700  0.59922000  1
  O  70  1  0.73570600  0.85065500  0.66620200  1
  O  86  1  0.22770500  0.17226900  0.94055000  1
  O  93  1  0.30335500  0.10391400  0.82417100  1
  O  95  1  0.26598300  0.11156400  0.91525400  1
  O  96  1  0.23569300  0.13719400  0.84831200  1
  O  112  1  0.54233600  0.17753300  0.93493900  1
  O  119  1  0.46836800  0.05977300  0.86624200  1
  O  121  1  0.50370200  0.15248800  0.87436400  1
  O  122  1  0.53534700  0.08616900  0.89890800  1
  O  138  1  0.04222800  0.81025400  0.57955100  1
  O  145  1  0.96836200  0.92806000  0.64823600  1
  O  147  1  0.00368100  0.83531100  0.64009300  1
  O  148  1  0.03534200  0.90165500  0.61557900  1
  O  164  1  0.79231700  0.81565300  0.94026500  1
  O  171  1  0.71837400  0.88457800  0.82287900  1
  O  173  1  0.75369700  0.87643100  0.91531300  1
  O  174  1  0.78534700  0.85180600  0.84920100  1
  O  190  1  0.29228000  0.17217400  0.57418600  1
  O  197  1  0.21837000  0.10326300  0.69159500  1
  O  199  1  0.25369400  0.11141300  0.59914800  1
  O  200  1  0.28535000  0.13602600  0.66527300  1
  O  216  1  0.04004600  0.80935800  0.43405900  1
  O  223  1  0.96645600  0.92646700  0.36537300  1
  O  225  1  0.00466700  0.83550800  0.37271400  1
  O  226  1  0.03418900  0.90258000  0.39881200  1
  O  242  1  0.54005200  0.17842600  0.08043300  1
  O  249  1  0.46648900  0.06124600  0.14909000  1
  O  251  1  0.50462000  0.15231100  0.14179900  1
  O  252  1  0.53415600  0.08528600  0.11566100  1
  O  268  1  0.29371100  0.17041200  0.44178300  1
  O  275  1  0.21648400  0.10380600  0.32553400  1
  O  277  1  0.25579600  0.11049400  0.41577400  1
  O  278  1  0.28412900  0.13723900  0.34962000  1
  O  294  1  0.79370900  0.81743500  0.07269000  1
  O  301  1  0.71648000  0.88403000  0.18894400  1
  O  303  1  0.75579900  0.87734600  0.09870100  1
  O  304  1  0.78413200  0.85059700  0.16486300  1
  O  320  1  0.47980400  0.80953300  0.08048700  1
  O  327  1  0.55143300  0.92785700  0.14971900  1
  O  329  1  0.51532900  0.83536800  0.14192000  1
  O  330  1  0.48440300  0.90168600  0.11674000  1
  O  346  1  0.97983700  0.17833100  0.43396600  1
  O  353  1  0.05143500  0.05998000  0.36476700  1
  O  355  1  0.01534300  0.15247800  0.37256300  1
  O  356  1  0.98440100  0.08615300  0.39774200  1
  O  372  1  0.22635400  0.17020300  0.07314900  1
  O  379  1  0.30102600  0.10316000  0.19142300  1
  O  381  1  0.26446200  0.11028900  0.09894200  1
  O  382  1  0.23452100  0.13642200  0.16451400  1
  O  398  1  0.72636100  0.81764600  0.44134500  1
  O  405  1  0.80103800  0.88466300  0.32306800  1
  O  407  1  0.76446000  0.87754800  0.41554000  1
  O  408  1  0.73451400  0.85141500  0.34996500  1
  O  424  1  0.47617900  0.67740900  0.08291300  1
  O  431  1  0.55349800  0.56072300  0.14914400  1
  O  433  1  0.51416000  0.65147000  0.14268800  1
  O  434  1  0.48591800  0.58517200  0.11600700  1
  O  450  1  0.97614800  0.31035300  0.43160500  1
  O  457  1  0.05341100  0.42689700  0.36521800  1
  O  459  1  0.01408700  0.33641400  0.37186700  1
  O  460  1  0.98578100  0.40269500  0.39852500  1
  O  476  1  0.22989800  0.31818600  0.07167400  1
  O  483  1  0.30320000  0.38708300  0.18871700  1
  O  485  1  0.26530900  0.37965900  0.09780500  1
  O  486  1  0.23562500  0.35343000  0.16465500  1
  O  502  1  0.72987300  0.66959900  0.44282300  1
  O  509  1  0.80221500  0.60078900  0.32500500  1
  O  511  1  0.76541400  0.60819100  0.41657600  1
  O  512  1  0.73537000  0.63460300  0.35015300  1
  O  528  1  0.04371200  0.67726600  0.43150400  1
  O  535  1  0.96889600  0.55928200  0.36438300  1
  O  537  1  0.00561100  0.65156400  0.37168200  1
  O  538  1  0.03539800  0.58611600  0.39757300  1
  O  554  1  0.54370900  0.31057800  0.08297600  1
  O  561  1  0.46888600  0.42856000  0.15009900  1
  O  563  1  0.50560700  0.33627700  0.14280100  1
  O  564  1  0.53536700  0.40170500  0.11692200  1
  O  580  1  0.28994700  0.31833400  0.44234600  1
  O  587  1  0.21883700  0.38769300  0.32354800  1
  O  589  1  0.25434100  0.37988500  0.41648100  1
  O  590  1  0.28547800  0.35423100  0.35012900  1
  O  606  1  0.78994400  0.66948400  0.07212500  1
  O  613  1  0.71883800  0.60014200  0.19096900  1
  O  615  1  0.75432900  0.60795500  0.09798500  1
  O  616  1  0.78544900  0.63358500  0.16432700  1
  O  632  1  0.54207100  0.30995500  0.93395300  1
  O  639  1  0.46643300  0.42670000  0.86690700  1
  O  641  1  0.50656200  0.33649400  0.87330400  1
  O  642  1  0.53412400  0.40270300  0.90042600  1
  O  658  1  0.04206600  0.67786800  0.58053900  1
  O  665  1  0.96647600  0.56107500  0.64757800  1
  O  667  1  0.00654900  0.65134500  0.64118600  1
  O  668  1  0.03411400  0.58514600  0.61404000  1
  O  684  1  0.79207000  0.66802000  0.94063400  1
  O  691  1  0.71657600  0.60070000  0.82413600  1
  O  693  1  0.75654300  0.60719500  0.91414300  1
  O  694  1  0.78414200  0.63442800  0.84822300  1
  O  710  1  0.29207300  0.31980500  0.57384400  1
  O  717  1  0.21644500  0.38713500  0.69021700  1
  O  719  1  0.25658700  0.38065000  0.60031800  1
  O  720  1  0.28411500  0.35344400  0.66631100  1
  O  736  1  0.97784000  0.31022800  0.58066000  1
  O  743  1  0.05065800  0.42876800  0.64847500  1
  O  745  1  0.01367500  0.33643400  0.64134700  1
  O  746  1  0.98450400  0.40158600  0.61499900  1
  O  762  1  0.47784800  0.67761400  0.93381200  1
  O  769  1  0.55066300  0.55907900  0.86601500  1
  O  771  1  0.51367300  0.65139900  0.87313100  1
  O  772  1  0.48449200  0.58624700  0.89948600  1
  O  788  1  0.72781400  0.66798200  0.57400500  1
  O  795  1  0.80151000  0.60009800  0.69151100  1
  O  797  1  0.76339300  0.60704000  0.60018700  1
  O  798  1  0.73449000  0.63329300  0.66544700  1
  O  814  1  0.22781600  0.31985800  0.94047700  1
  O  821  1  0.30151300  0.38773000  0.82296600  1
  O  823  1  0.26339000  0.38080000  0.91429500  1
  O  824  1  0.23448500  0.35454500  0.84903700  1
  O  842  1  0.02515000  0.25585400  0.58964400  1
  O  857  1  0.52513800  0.73198800  0.92484100  1
  O  872  1  0.77520000  0.82577600  0.49614700  1
  O  887  1  0.27518900  0.16206500  0.01834200  1
  O  902  1  0.49475000  0.25582000  0.92484400  1
  O  917  1  0.99472700  0.73202500  0.58963100  1
  O  932  1  0.74466300  0.82578000  0.01828200  1
  O  947  1  0.24466000  0.16206400  0.49620400  1
  O  962  1  0.99467700  0.73209800  0.42325800  1
  O  977  1  0.49468600  0.25572900  0.09121600  1
  O  992  1  0.52520100  0.73212700  0.09121800  1
  O  1007  1  0.02519300  0.25570900  0.42327700  1
  O  1022  1  0.27511700  0.32895300  0.99465500  1
  O  1037  1  0.77513900  0.65887200  0.51983400  1
  O  1052  1  0.24475200  0.32898100  0.51981900  1
  O  1067  1  0.74474800  0.65886000  0.99467000  1
  O  1082  1  0.01139200  0.16193600  0.52011300  1
  O  1097  1  0.51140200  0.82591100  0.99437500  1
  O  1112  1  0.76140000  0.75609300  0.58975600  1
  O  1127  1  0.26139900  0.23172700  0.92471600  1
  O  1142  1  0.50848100  0.16192200  0.99433300  1
  O  1157  1  0.00848500  0.82588000  0.52013300  1
  O  1172  1  0.75849200  0.75614300  0.92473600  1
  O  1187  1  0.25849100  0.23168100  0.58974100  1
  O  1202  1  0.25848400  0.23192600  0.42633500  1
  O  1217  1  0.75847500  0.75591000  0.08815200  1
  O  1232  1  0.26141100  0.23186000  0.08815100  1
  O  1247  1  0.76141000  0.75599000  0.42632000  1
  O  1262  1  0.51140700  0.66195200  0.02164700  1
  O  1277  1  0.01140600  0.32584800  0.49285600  1
  O  1292  1  0.00848500  0.66197400  0.49278600  1
  O  1307  1  0.50848200  0.32585300  0.02169600  1
  O  1322  1  0.14762800  0.13268100  0.61816800  1
  O  1337  1  0.64761900  0.85515000  0.89631600  1
  O  1352  1  0.89760800  0.85441900  0.61894300  1
  O  1367  1  0.39760700  0.13342700  0.89557000  1
  O  1382  1  0.87351600  0.85479600  0.39512800  1
  O  1397  1  0.37350400  0.13304900  0.11935200  1
  O  1412  1  0.12304400  0.13288400  0.39778200  1
  O  1427  1  0.62306600  0.85497500  0.11668100  1
  O  1442  1  0.64739100  0.63386000  0.12057600  1
  O  1457  1  0.14704200  0.35399100  0.39392000  1
  O  1472  1  0.39682900  0.35836300  0.11615100  1
  O  1487  1  0.89725100  0.62952400  0.39864300  1
  O  1502  1  0.37301500  0.35449000  0.89568400  1
  O  1517  1  0.87307200  0.63329300  0.61875600  1
  O  1532  1  0.62353300  0.63081400  0.89594900  1
  O  1547  1  0.12361500  0.35707100  0.61850300  1
  O  1562  1  0.97682400  0.98154500  0.60417400  1
  O  1577  1  0.47681200  0.00629000  0.91030000  1
  O  1592  1  0.72681400  0.84037800  0.76956200  1
  O  1607  1  0.22680700  0.14746000  0.74491500  1
  O  1622  1  0.04306800  0.00626900  0.40869100  1
  O  1637  1  0.54306900  0.98153500  0.10576500  1
  O  1652  1  0.29283600  0.14736300  0.24533300  1
  O  1667  1  0.79283900  0.84046800  0.26913900  1
  O  1682  1  0.47681900  0.48157100  0.10572000  1
  O  1697  1  0.97681400  0.50623600  0.40874300  1
  O  1712  1  0.22703900  0.34366400  0.26920400  1
  O  1727  1  0.72701500  0.64419700  0.24520300  1
  O  1742  1  0.54306200  0.50615400  0.91032600  1
  O  1757  1  0.04306100  0.48165900  0.60413700  1
  O  1772  1  0.79307700  0.64430000  0.74488300  1
  O  1787  1  0.29307100  0.34354700  0.76955900  1
