# generated using pymatgen
data_H34C57(N3O2)2
_symmetry_space_group_name_H-M   'P 1'
_cell_length_a   47.29020000
_cell_length_b   47.29020000
_cell_length_c   57.14300000
_cell_angle_alpha   90.00130000
_cell_angle_beta   89.99870000
_cell_angle_gamma   90.00000000
_symmetry_Int_Tables_number   1
_chemical_formula_structural   H34C57(N3O2)2
_chemical_formula_sum   'H544 C912 N96 O64'
_cell_volume   127792.49175979
_cell_formula_units_Z   16
loop_
 _symmetry_equiv_pos_site_id
 _symmetry_equiv_pos_as_xyz
  1  'x, y, z'
loop_
 _atom_site_type_symbol
 _atom_site_label
 _atom_site_symmetry_multiplicity
 _atom_site_fract_x
 _atom_site_fract_y
 _atom_site_fract_z
 _atom_site_occupancy
  H  25  1  0.80866600  0.12502100  0.74163600  1
  H  26  1  0.82023400  0.07578100  0.74593900  1
  H  27  1  0.82563100  0.02005400  0.74272400  1
  H  28  1  0.81901000  0.97045500  0.73568600  1
  H  29  1  0.76449100  0.98937600  0.67906500  1
  H  30  1  0.76294100  0.10708600  0.68002500  1
  H  31  1  0.73050100  0.04770200  0.72607000  1
  H  32  1  0.65463900  0.04837800  0.68635200  1
  H  33  1  0.68141100  0.04786300  0.65091900  1
  H  34  1  0.81209400  0.04748900  0.65359900  1
  H  35  1  0.71774100  0.04547900  0.61863600  1
  H  36  1  0.75846900  0.04387100  0.59399900  1
  H  42  1  0.76436100  0.15451900  0.69644000  1
  H  43  1  0.77444200  0.94197200  0.68751000  1
  H  44  1  0.83150400  0.03724900  0.61267900  1
  H  45  1  0.68337100  0.05399000  0.74564300  1
  H  70  1  0.28487000  0.96846500  0.74182100  1
  H  71  1  0.27316500  0.01769500  0.74605500  1
  H  72  1  0.26779900  0.07356200  0.74275200  1
  H  73  1  0.27456500  0.12313500  0.73569100  1
  H  74  1  0.32951300  0.10402100  0.67942200  1
  H  75  1  0.33073100  0.98639300  0.68027900  1
  H  76  1  0.36141400  0.04425400  0.72723700  1
  H  77  1  0.43790900  0.05675200  0.69060800  1
  H  78  1  0.41354400  0.05312700  0.65412000  1
  H  79  1  0.28274700  0.04587300  0.65348300  1
  H  80  1  0.37782500  0.04916700  0.62003600  1
  H  81  1  0.33753400  0.05031200  0.59472400  1
  H  87  1  0.32944900  0.93906900  0.69675500  1
  H  88  1  0.31941700  0.15149200  0.68766200  1
  H  89  1  0.26408000  0.05678600  0.61257500  1
  H  90  1  0.40455600  0.05087300  0.74875500  1
  H  115  1  0.12503000  0.28512300  0.24163000  1
  H  116  1  0.07578700  0.27353300  0.24591100  1
  H  117  1  0.02006800  0.26818500  0.24271700  1
  H  118  1  0.97046600  0.27481800  0.23569300  1
  H  119  1  0.98938300  0.32926800  0.17902400  1
  H  120  1  0.10710200  0.33083900  0.18000600  1
  H  121  1  0.04767600  0.36324400  0.22603400  1
  H  122  1  0.04835200  0.43913900  0.18636900  1
  H  123  1  0.04786600  0.41239200  0.15091600  1
  H  124  1  0.04750300  0.28169300  0.15353900  1
  H  125  1  0.04551200  0.37605400  0.11860200  1
  H  126  1  0.04391000  0.33533000  0.09395200  1
  H  132  1  0.15452800  0.32944400  0.19644900  1
  H  133  1  0.94197100  0.31939900  0.18754500  1
  H  134  1  0.03748100  0.26222300  0.11269200  1
  H  135  1  0.05381200  0.41027600  0.24566400  1
  H  160  1  0.96846300  0.80891500  0.24187700  1
  H  161  1  0.01768200  0.82063300  0.24611000  1
  H  162  1  0.07354800  0.82603300  0.24279800  1
  H  163  1  0.12312300  0.81925500  0.23574900  1
  H  164  1  0.10402100  0.76423300  0.17952600  1
  H  165  1  0.98639700  0.76306800  0.18033300  1
  H  166  1  0.04422300  0.73235100  0.22731500  1
  H  167  1  0.05683100  0.65588800  0.19068100  1
  H  168  1  0.05319100  0.68024900  0.15419900  1
  H  169  1  0.04587000  0.81102900  0.15358300  1
  H  170  1  0.04913600  0.71594900  0.12011900  1
  H  171  1  0.05030400  0.75624400  0.09481800  1
  H  177  1  0.93906300  0.76436700  0.19677800  1
  H  178  1  0.15148300  0.77438600  0.18772300  1
  H  179  1  0.05685000  0.82967100  0.11264300  1
  H  180  1  0.05091900  0.68921300  0.24882100  1
  H  205  1  0.81889800  0.97054400  0.26986700  1
  H  206  1  0.82544800  0.02010700  0.26258100  1
  H  207  1  0.82019200  0.07610100  0.25932800  1
  H  208  1  0.80867800  0.12537600  0.26372100  1
  H  209  1  0.76325100  0.10736800  0.32549500  1
  H  210  1  0.76485800  0.98981400  0.32671500  1
  H  211  1  0.73008000  0.04785300  0.28060600  1
  H  212  1  0.65544800  0.04448100  0.32167000  1
  H  213  1  0.68326500  0.04545100  0.35671000  1
  H  214  1  0.81392100  0.04916200  0.34963300  1
  H  215  1  0.72259200  0.04207300  0.38879500  1
  H  216  1  0.76523800  0.03877900  0.41104600  1
  H  222  1  0.77442200  0.94231300  0.31817300  1
  H  223  1  0.76433000  0.15471300  0.30900900  1
  H  224  1  0.83752500  0.04265200  0.38632400  1
  H  225  1  0.68273300  0.03876200  0.26197900  1
  H  250  1  0.27460100  0.12357900  0.26972000  1
  H  251  1  0.26795500  0.07401400  0.26246600  1
  H  252  1  0.27315700  0.01781200  0.25932600  1
  H  253  1  0.28483200  0.96858200  0.26375600  1
  H  254  1  0.33069000  0.98688800  0.32523100  1
  H  255  1  0.32882500  0.10429500  0.32643300  1
  H  256  1  0.36163800  0.04717400  0.27946000  1
  H  257  1  0.43769500  0.03969600  0.31756800  1
  H  258  1  0.41208000  0.04241200  0.35360000  1
  H  259  1  0.28080400  0.04536400  0.34964200  1
  H  260  1  0.37294000  0.04993900  0.38767500  1
  H  261  1  0.33072500  0.05288900  0.41064500  1
  H  267  1  0.31915500  0.15171100  0.31811600  1
  H  268  1  0.32926300  0.93939100  0.30915900  1
  H  269  1  0.25772800  0.05090300  0.38636600  1
  H  270  1  0.40481100  0.04303700  0.25852100  1
  H  295  1  0.12323100  0.81887200  0.76983300  1
  H  296  1  0.07366500  0.82543800  0.76258300  1
  H  297  1  0.01771900  0.82016600  0.75934100  1
  H  298  1  0.96844400  0.80864700  0.76371500  1
  H  299  1  0.98641900  0.76331000  0.82554300  1
  H  300  1  0.10400100  0.76490900  0.82674000  1
  H  301  1  0.04592700  0.73017500  0.78064700  1
  H  302  1  0.04924800  0.65549900  0.82165300  1
  H  303  1  0.04829300  0.68328800  0.85671400  1
  H  304  1  0.04464200  0.81396200  0.84974600  1
  H  305  1  0.05166500  0.72259900  0.88883600  1
  H  306  1  0.05496100  0.76520700  0.91111800  1
  H  312  1  0.15150400  0.77443000  0.81813700  1
  H  313  1  0.93909300  0.76432000  0.80899700  1
  H  314  1  0.05109400  0.83753200  0.88643700  1
  H  315  1  0.05489800  0.68290000  0.76196600  1
  H  340  1  0.97021300  0.27456500  0.76971100  1
  H  341  1  0.01977200  0.26792700  0.76244000  1
  H  342  1  0.07598900  0.27318300  0.75925700  1
  H  343  1  0.12521900  0.28484300  0.76369600  1
  H  344  1  0.10691700  0.33070700  0.82516200  1
  H  345  1  0.98952000  0.32885400  0.82638000  1
  H  346  1  0.04663100  0.36167600  0.77939000  1
  H  347  1  0.05415800  0.43772600  0.81750900  1
  H  348  1  0.05144600  0.41211300  0.85353700  1
  H  349  1  0.04843100  0.28084500  0.84953200  1
  H  350  1  0.04386000  0.37297100  0.88760300  1
  H  351  1  0.04090100  0.33073900  0.91056100  1
  H  357  1  0.94210300  0.31915900  0.81809700  1
  H  358  1  0.15440300  0.32928100  0.80908800  1
  H  359  1  0.04287900  0.25775900  0.88626100  1
  H  360  1  0.05076400  0.40485300  0.75845900  1
  H  367  1  0.79201700  0.87743100  0.72600500  1
  H  374  1  0.91590600  0.87600200  0.75333300  1
  H  375  1  0.94298700  0.84484700  0.77593900  1
  H  376  1  0.86933700  0.80310000  0.79815500  1
  H  377  1  0.85299500  0.94077700  0.71884400  1
  H  380  1  0.82265800  0.85423300  0.79060200  1
  H  381  1  0.82390500  0.81737000  0.78556800  1
  H  382  1  0.79635600  0.84151600  0.75482700  1
  H  383  1  0.82656700  0.82504700  0.74265400  1
  H  395  1  0.30179800  0.21623800  0.72599600  1
  H  402  1  0.17787100  0.21773600  0.75331700  1
  H  403  1  0.15076500  0.24881900  0.77595000  1
  H  404  1  0.22434600  0.29077800  0.79803100  1
  H  405  1  0.24078100  0.15293300  0.71887500  1
  H  408  1  0.27106800  0.23964900  0.79055900  1
  H  409  1  0.26982700  0.27649600  0.78544900  1
  H  410  1  0.29743400  0.25222100  0.75479200  1
  H  411  1  0.26726600  0.26869400  0.74255300  1
  H  423  1  0.87742300  0.30177300  0.22599900  1
  H  430  1  0.87601700  0.17788800  0.25335200  1
  H  431  1  0.84487500  0.15080900  0.27597200  1
  H  432  1  0.80310000  0.22445900  0.29816000  1
  H  433  1  0.94079400  0.24081300  0.21886800  1
  H  436  1  0.85422500  0.27114500  0.29059700  1
  H  437  1  0.81736200  0.26988900  0.28556400  1
  H  438  1  0.84150300  0.29743300  0.25481700  1
  H  439  1  0.82504100  0.26721500  0.24265100  1
  H  451  1  0.21622700  0.79200700  0.22605400  1
  H  458  1  0.21771900  0.91593600  0.25336900  1
  H  459  1  0.24879900  0.94304400  0.27600200  1
  H  460  1  0.29076500  0.86946700  0.29808300  1
  H  461  1  0.15292200  0.85302300  0.21892900  1
  H  464  1  0.23964000  0.82274100  0.29061500  1
  H  465  1  0.27648500  0.82398500  0.28549900  1
  H  466  1  0.25221200  0.79637400  0.25484600  1
  H  467  1  0.26868100  0.82654200  0.24260500  1
  H  479  1  0.30171900  0.21648400  0.27966800  1
  H  486  1  0.17782500  0.21784700  0.25237000  1
  H  487  1  0.15070000  0.24896900  0.22978300  1
  H  488  1  0.22427800  0.29081700  0.20754600  1
  H  489  1  0.24073100  0.15315800  0.28689800  1
  H  492  1  0.27100400  0.23971100  0.21505800  1
  H  493  1  0.26975600  0.27656900  0.22012500  1
  H  494  1  0.29736800  0.25236400  0.25080400  1
  H  495  1  0.26719400  0.26884300  0.26303100  1
  H  507  1  0.79195000  0.87755100  0.27979400  1
  H  514  1  0.91582500  0.87607400  0.25238200  1
  H  515  1  0.94288500  0.84496300  0.22975000  1
  H  516  1  0.86924800  0.80307900  0.20768000  1
  H  517  1  0.85292800  0.94091100  0.28684200  1
  H  520  1  0.82256400  0.85425300  0.21519500  1
  H  521  1  0.82380800  0.81739700  0.22025400  1
  H  522  1  0.79627500  0.84158700  0.25098900  1
  H  523  1  0.82648600  0.82512100  0.26316100  1
  H  535  1  0.21625000  0.79196800  0.77974500  1
  H  542  1  0.21771200  0.91585500  0.75232300  1
  H  543  1  0.24881200  0.94290700  0.72966200  1
  H  544  1  0.29069400  0.86926300  0.70760700  1
  H  545  1  0.15287700  0.85293300  0.78677700  1
  H  548  1  0.23956300  0.82258000  0.71515300  1
  H  549  1  0.27641800  0.82383400  0.72022300  1
  H  550  1  0.25222400  0.79629900  0.75095300  1
  H  551  1  0.26867800  0.82651600  0.76312600  1
  H  563  1  0.87732700  0.30172700  0.77965100  1
  H  570  1  0.87595400  0.17784200  0.75236500  1
  H  571  1  0.84481200  0.15070500  0.72981300  1
  H  572  1  0.80296200  0.22427500  0.70756000  1
  H  573  1  0.94063800  0.24072700  0.78690300  1
  H  576  1  0.85411100  0.27100400  0.71503400  1
  H  577  1  0.81725300  0.26976500  0.72009300  1
  H  578  1  0.84145600  0.29737800  0.75077600  1
  H  579  1  0.82496700  0.26721000  0.76300200  1
  H  591  1  0.47664200  0.03804400  0.70289600  1
  H  598  1  0.57099200  0.06804200  0.76892900  1
  H  599  1  0.62117800  0.06607300  0.76549000  1
  H  600  1  0.61354800  0.01750300  0.70430500  1
  H  601  1  0.47334500  0.04695700  0.77556500  1
  H  604  1  0.54897400  0.99548700  0.70570100  1
  H  605  1  0.56917300  0.01428000  0.68478700  1
  H  606  1  0.51893000  0.02839700  0.68269100  1
  H  607  1  0.54029400  0.05741800  0.69093700  1
  H  619  1  0.03805300  0.61715700  0.20292700  1
  H  626  1  0.06802200  0.52279900  0.26893200  1
  H  627  1  0.06610400  0.47262300  0.26549300  1
  H  628  1  0.01761100  0.48020300  0.20425900  1
  H  629  1  0.04697500  0.62040900  0.27560000  1
  H  632  1  0.99548800  0.54480600  0.20571900  1
  H  633  1  0.01427100  0.52462600  0.18478500  1
  H  634  1  0.02837500  0.57487700  0.18271100  1
  H  635  1  0.05740900  0.55351300  0.19093300  1
  H  647  1  0.47714600  0.05459100  0.30366400  1
  H  654  1  0.57157500  0.02618100  0.23718400  1
  H  655  1  0.62177300  0.02777800  0.24142200  1
  H  656  1  0.61309100  0.07655100  0.30239000  1
  H  657  1  0.47309200  0.04683000  0.23095200  1
  H  660  1  0.54819600  0.09832300  0.30022400  1
  H  661  1  0.56880500  0.08026700  0.32130100  1
  H  662  1  0.51918500  0.06471000  0.32362100  1
  H  663  1  0.54109700  0.03619800  0.31513200  1
  H  675  1  0.03918300  0.47716100  0.80364000  1
  H  682  1  0.06756500  0.57159100  0.73717500  1
  H  683  1  0.06603200  0.62177900  0.74141700  1
  H  684  1  0.01735800  0.61315300  0.80244800  1
  H  685  1  0.04697300  0.47313700  0.73092900  1
  H  688  1  0.99545300  0.54823300  0.80020500  1
  H  689  1  0.01349400  0.56881900  0.82130400  1
  H  690  1  0.02903700  0.51919400  0.82360600  1
  H  691  1  0.05756300  0.54109900  0.81514300  1
  H  703  1  0.77934400  0.05360100  0.44473000  1
  H  710  1  0.85837300  0.02572600  0.52330800  1
  H  711  1  0.85356100  0.02833000  0.56482500  1
  H  712  1  0.78038100  0.07783300  0.55716300  1
  H  713  1  0.86749100  0.04720200  0.44248300  1
  H  716  1  0.78215200  0.09808900  0.50327800  1
  H  717  1  0.75696900  0.07981800  0.52047700  1
  H  718  1  0.75457700  0.06395900  0.47933200  1
  H  719  1  0.76475600  0.03574200  0.49781200  1
  H  731  1  0.31534900  0.04131100  0.44493800  1
  H  738  1  0.23587400  0.06760600  0.52362300  1
  H  739  1  0.24149800  0.06551100  0.56511900  1
  H  740  1  0.31468000  0.01614600  0.55689000  1
  H  741  1  0.22716200  0.04654900  0.44225000  1
  H  744  1  0.31189500  0.99571200  0.50278200  1
  H  745  1  0.33733900  0.01338100  0.52013900  1
  H  746  1  0.33984000  0.03021800  0.47938100  1
  H  747  1  0.32956900  0.05811300  0.49816400  1
  H  759  1  0.05257700  0.31542100  0.94491000  1
  H  766  1  0.02585100  0.23550400  0.02302400  1
  H  767  1  0.02833800  0.24020000  0.06456000  1
  H  768  1  0.07770400  0.31350200  0.05714000  1
  H  769  1  0.04735800  0.22721700  0.94194300  1
  H  772  1  0.09798000  0.31186000  0.00312000  1
  H  773  1  0.07993400  0.33698000  0.02054300  1
  H  774  1  0.06368800  0.33972100  0.97954800  1
  H  775  1  0.03560000  0.32939000  0.99810900  1
  H  787  1  0.04029800  0.77939500  0.94477300  1
  H  794  1  0.06770500  0.85799400  0.02392200  1
  H  795  1  0.06551100  0.85225300  0.06539500  1
  H  796  1  0.01605500  0.77916300  0.05693900  1
  H  797  1  0.04668800  0.86752200  0.94280700  1
  H  800  1  0.99560300  0.78209700  0.00296800  1
  H  801  1  0.01349700  0.75658500  0.02009500  1
  H  802  1  0.02994400  0.75443900  0.97918200  1
  H  803  1  0.05797200  0.76455200  0.99787800  1
  H  833  1  0.42803700  0.74439200  0.46163700  1
  H  834  1  0.43960500  0.69515200  0.46594000  1
  H  835  1  0.44500200  0.63942500  0.46272500  1
  H  836  1  0.43838100  0.58982600  0.45568700  1
  H  837  1  0.38386200  0.60874700  0.39906600  1
  H  838  1  0.38231200  0.72645700  0.40002600  1
  H  839  1  0.34987200  0.66707300  0.44607100  1
  H  840  1  0.27401000  0.66774900  0.40635300  1
  H  841  1  0.30078200  0.66723400  0.37092000  1
  H  842  1  0.43146500  0.66686000  0.37360000  1
  H  843  1  0.33711200  0.66485000  0.33863700  1
  H  844  1  0.37784000  0.66324200  0.31400000  1
  H  850  1  0.38373200  0.77389000  0.41644100  1
  H  851  1  0.39381300  0.56134300  0.40751100  1
  H  852  1  0.45087500  0.65662000  0.33268000  1
  H  853  1  0.30274200  0.67336100  0.46564400  1
  H  878  1  0.90424150  0.58783600  0.46182200  1
  H  879  1  0.89253600  0.63706600  0.46605600  1
  H  880  1  0.88717000  0.69293300  0.46275300  1
  H  881  1  0.89393600  0.74250600  0.45569200  1
  H  882  1  0.94888450  0.72339200  0.39942300  1
  H  883  1  0.95010250  0.60576400  0.40028000  1
  H  884  1  0.98078550  0.66362500  0.44723800  1
  H  885  1  0.05728000  0.67612300  0.41060900  1
  H  886  1  0.03291500  0.67249800  0.37412100  1
  H  887  1  0.90211850  0.66524400  0.37348400  1
  H  888  1  0.99719646  0.66853800  0.34003700  1
  H  889  1  0.95690550  0.66968300  0.31472500  1
  H  895  1  0.94882050  0.55844000  0.41675600  1
  H  896  1  0.93878850  0.77086300  0.40766300  1
  H  897  1  0.88345100  0.67615700  0.33257600  1
  H  898  1  0.02392700  0.67024400  0.46875600  1
  H  923  1  0.74440100  0.90449450  0.96163070  1
  H  924  1  0.69515800  0.89290400  0.96591170  1
  H  925  1  0.63943900  0.88755600  0.96271770  1
  H  926  1  0.58983700  0.89418900  0.95569370  1
  H  927  1  0.60875400  0.94863950  0.89902500  1
  H  928  1  0.72647300  0.95021050  0.90000670  1
  H  929  1  0.66704700  0.98261550  0.94603470  1
  H  930  1  0.66772300  0.05851000  0.90636970  1
  H  931  1  0.66723700  0.03176300  0.87091700  1
  H  932  1  0.66687400  0.90106450  0.87354000  1
  H  933  1  0.66488300  0.99542546  0.83860300  1
  H  934  1  0.66328100  0.95470150  0.81395300  1
  H  940  1  0.77389900  0.94881550  0.91644970  1
  H  941  1  0.56134200  0.93877050  0.90754570  1
  H  942  1  0.65685200  0.88159400  0.83269300  1
  H  943  1  0.67318300  0.02964700  0.96566470  1
  H  968  1  0.58783400  0.42828600  0.96187770  1
  H  969  1  0.63705300  0.44000400  0.96611070  1
  H  970  1  0.69291900  0.44540400  0.96279870  1
  H  971  1  0.74249400  0.43862600  0.95574970  1
  H  972  1  0.72339200  0.38360400  0.89952700  1
  H  973  1  0.60576800  0.38243900  0.90033370  1
  H  974  1  0.66359400  0.35172200  0.94731570  1
  H  975  1  0.67620200  0.27525900  0.91068170  1
  H  976  1  0.67256200  0.29962000  0.87420000  1
  H  977  1  0.66524100  0.43040000  0.87358400  1
  H  978  1  0.66850700  0.33532000  0.84012000  1
  H  979  1  0.66967500  0.37561500  0.81481900  1
  H  985  1  0.55843400  0.38373800  0.91677870  1
  H  986  1  0.77085400  0.39375700  0.90772370  1
  H  987  1  0.67622100  0.44904200  0.83264400  1
  H  988  1  0.67029000  0.30858400  0.96882170  1
  H  1013  1  0.43826900  0.58991500  0.98986770  1
  H  1014  1  0.44481900  0.63947800  0.98258170  1
  H  1015  1  0.43956300  0.69547200  0.97932870  1
  H  1016  1  0.42804900  0.74474700  0.98372170  1
  H  1017  1  0.38262200  0.72673900  0.04549600  1
  H  1018  1  0.38422900  0.60918500  0.04671600  1
  H  1019  1  0.34945100  0.66722400  0.00060700  1
  H  1020  1  0.27481900  0.66385200  0.04167100  1
  H  1021  1  0.30263600  0.66482200  0.07671100  1
  H  1022  1  0.43329200  0.66853300  0.06963400  1
  H  1023  1  0.34196300  0.66144400  0.10879600  1
  H  1024  1  0.38460900  0.65815000  0.13104700  1
  H  1030  1  0.39379300  0.56168400  0.03817400  1
  H  1031  1  0.38370100  0.77408400  0.02901000  1
  H  1032  1  0.45689600  0.66202300  0.10632500  1
  H  1033  1  0.30210400  0.65813300  0.98197970  1
  H  1058  1  0.89397200  0.74295000  0.98972070  1
  H  1059  1  0.88732600  0.69338500  0.98246670  1
  H  1060  1  0.89252800  0.63718300  0.97932670  1
  H  1061  1  0.90420350  0.58795300  0.98375670  1
  H  1062  1  0.95006150  0.60625900  0.04523200  1
  H  1063  1  0.94819650  0.72366600  0.04643400  1
  H  1064  1  0.98100950  0.66654500  0.99946070  1
  H  1065  1  0.05706600  0.65906700  0.03756900  1
  H  1066  1  0.03145100  0.66178300  0.07360100  1
  H  1067  1  0.90017550  0.66473500  0.06964300  1
  H  1068  1  0.99231146  0.66931000  0.10767600  1
  H  1069  1  0.95009650  0.67226000  0.13064600  1
  H  1075  1  0.93852650  0.77108200  0.03811700  1
  H  1076  1  0.94863450  0.55876200  0.02916000  1
  H  1077  1  0.87709900  0.67027400  0.10636700  1
  H  1078  1  0.02418200  0.66240800  0.97852170  1
  H  1103  1  0.74260200  0.43824300  0.48983400  1
  H  1104  1  0.69303600  0.44480900  0.48258400  1
  H  1105  1  0.63709000  0.43953700  0.47934200  1
  H  1106  1  0.58781500  0.42801800  0.48371600  1
  H  1107  1  0.60579000  0.38268100  0.54554400  1
  H  1108  1  0.72337200  0.38428000  0.54674100  1
  H  1109  1  0.66529800  0.34954600  0.50064800  1
  H  1110  1  0.66861900  0.27487000  0.54165400  1
  H  1111  1  0.66766400  0.30265900  0.57671500  1
  H  1112  1  0.66401300  0.43333300  0.56974700  1
  H  1113  1  0.67103600  0.34197000  0.60883700  1
  H  1114  1  0.67433200  0.38457800  0.63111900  1
  H  1120  1  0.77087500  0.39380100  0.53813800  1
  H  1121  1  0.55846400  0.38369100  0.52899800  1
  H  1122  1  0.67046500  0.45690300  0.60643800  1
  H  1123  1  0.67426900  0.30227100  0.48196700  1
  H  1148  1  0.58958400  0.89393600  0.48971200  1
  H  1149  1  0.63914300  0.88729800  0.48244100  1
  H  1150  1  0.69536000  0.89255400  0.47925800  1
  H  1151  1  0.74459000  0.90421450  0.48369700  1
  H  1152  1  0.72628800  0.95007850  0.54516300  1
  H  1153  1  0.60889100  0.94822550  0.54638100  1
  H  1154  1  0.66600200  0.98104750  0.49939100  1
  H  1155  1  0.67352900  0.05709700  0.53751000  1
  H  1156  1  0.67081700  0.03148400  0.57353800  1
  H  1157  1  0.66780200  0.90021650  0.56953300  1
  H  1158  1  0.66323100  0.99234246  0.60760400  1
  H  1159  1  0.66027200  0.95011050  0.63056200  1
  H  1165  1  0.56147400  0.93853050  0.53809800  1
  H  1166  1  0.77377400  0.94865250  0.52908900  1
  H  1167  1  0.66225000  0.87713000  0.60626200  1
  H  1168  1  0.67013500  0.02422400  0.47846000  1
  H  1175  1  0.41138800  0.49680200  0.44600600  1
  H  1182  1  0.53527700  0.49537300  0.47333400  1
  H  1183  1  0.56235800  0.46421800  0.49594000  1
  H  1184  1  0.48870800  0.42247100  0.51815600  1
  H  1185  1  0.47236600  0.56014800  0.43884500  1
  H  1188  1  0.44202900  0.47360400  0.51060300  1
  H  1189  1  0.44327600  0.43674100  0.50556900  1
  H  1190  1  0.41572700  0.46088700  0.47482800  1
  H  1191  1  0.44593800  0.44441800  0.46265500  1
  H  1203  1  0.92116950  0.83560900  0.44599700  1
  H  1210  1  0.79724200  0.83710700  0.47331800  1
  H  1211  1  0.77013600  0.86819000  0.49595100  1
  H  1212  1  0.84371700  0.91014950  0.51803200  1
  H  1213  1  0.86015200  0.77230400  0.43887600  1
  H  1216  1  0.89043900  0.85902000  0.51056000  1
  H  1217  1  0.88919800  0.89586700  0.50545000  1
  H  1218  1  0.91680550  0.87159200  0.47479300  1
  H  1219  1  0.88663700  0.88806500  0.46255400  1
  H  1231  1  0.49679400  0.92114450  0.94599970  1
  H  1238  1  0.49538800  0.79725900  0.97335270  1
  H  1239  1  0.46424600  0.77018000  0.99597270  1
  H  1240  1  0.42247100  0.84383000  0.01816100  1
  H  1241  1  0.56016500  0.86018400  0.93886870  1
  H  1244  1  0.47359600  0.89051600  0.01059800  1
  H  1245  1  0.43673300  0.88926000  0.00556500  1
  H  1246  1  0.46087400  0.91680450  0.97481770  1
  H  1247  1  0.44441200  0.88658600  0.96265170  1
  H  1259  1  0.83559800  0.41137800  0.94605470  1
  H  1266  1  0.83709000  0.53530700  0.97336970  1
  H  1267  1  0.86817000  0.56241500  0.99600270  1
  H  1268  1  0.91013650  0.48883800  0.01808400  1
  H  1269  1  0.77229300  0.47239400  0.93892970  1
  H  1272  1  0.85901100  0.44211200  0.01061600  1
  H  1273  1  0.89585600  0.44335600  0.00550000  1
  H  1274  1  0.87158300  0.41574500  0.97484670  1
  H  1275  1  0.88805200  0.44591300  0.96260570  1
  H  1287  1  0.92109050  0.83585500  0.99966870  1
  H  1294  1  0.79719600  0.83721800  0.97237070  1
  H  1295  1  0.77007100  0.86834000  0.94978370  1
  H  1296  1  0.84364900  0.91018850  0.92754670  1
  H  1297  1  0.86010200  0.77252900  0.00689900  1
  H  1300  1  0.89037500  0.85908200  0.93505870  1
  H  1301  1  0.88912700  0.89594000  0.94012570  1
  H  1302  1  0.91673950  0.87173500  0.97080470  1
  H  1303  1  0.88656500  0.88821400  0.98303170  1
  H  1315  1  0.41132100  0.49692200  0.99979470  1
  H  1322  1  0.53519600  0.49544500  0.97238270  1
  H  1323  1  0.56225600  0.46433400  0.94975070  1
  H  1324  1  0.48861900  0.42245000  0.92768070  1
  H  1325  1  0.47229900  0.56028200  0.00684300  1
  H  1328  1  0.44193500  0.47362400  0.93519570  1
  H  1329  1  0.44317900  0.43676800  0.94025470  1
  H  1330  1  0.41564600  0.46095800  0.97098970  1
  H  1331  1  0.44585700  0.44449200  0.98316170  1
  H  1343  1  0.83562100  0.41133900  0.49974600  1
  H  1350  1  0.83708300  0.53522600  0.47232400  1
  H  1351  1  0.86818300  0.56227800  0.44966300  1
  H  1352  1  0.91006550  0.48863400  0.42760800  1
  H  1353  1  0.77224800  0.47230400  0.50677800  1
  H  1356  1  0.85893400  0.44195100  0.43515400  1
  H  1357  1  0.89578900  0.44320500  0.44022400  1
  H  1358  1  0.87159500  0.41567000  0.47095400  1
  H  1359  1  0.88804900  0.44588700  0.48312700  1
  H  1371  1  0.49669800  0.92109850  0.49965200  1
  H  1378  1  0.49532500  0.79721300  0.47236600  1
  H  1379  1  0.46418300  0.77007600  0.44981400  1
  H  1380  1  0.42233300  0.84364600  0.42756100  1
  H  1381  1  0.56000900  0.86009800  0.50690400  1
  H  1384  1  0.47348200  0.89037500  0.43503500  1
  H  1385  1  0.43662400  0.88913600  0.44009400  1
  H  1386  1  0.46082700  0.91674950  0.47077700  1
  H  1387  1  0.44433800  0.88658100  0.48300300  1
  H  1399  1  0.09601300  0.65741500  0.42289700  1
  H  1406  1  0.19036300  0.68741300  0.48893000  1
  H  1407  1  0.24054900  0.68544400  0.48549100  1
  H  1408  1  0.23291900  0.63687400  0.42430600  1
  H  1409  1  0.09271600  0.66632800  0.49556600  1
  H  1412  1  0.16834500  0.61485800  0.42570200  1
  H  1413  1  0.18854400  0.63365100  0.40478800  1
  H  1414  1  0.13830100  0.64776800  0.40269200  1
  H  1415  1  0.15966500  0.67678900  0.41093800  1
  H  1427  1  0.65742400  0.23652800  0.92292770  1
  H  1434  1  0.68739300  0.14217000  0.98893270  1
  H  1435  1  0.68547500  0.09199400  0.98549370  1
  H  1436  1  0.63698200  0.09957400  0.92425970  1
  H  1437  1  0.66634600  0.23978000  0.99560070  1
  H  1440  1  0.61485900  0.16417700  0.92571970  1
  H  1441  1  0.63364200  0.14399700  0.90478570  1
  H  1442  1  0.64774600  0.19424800  0.90271170  1
  H  1443  1  0.67678000  0.17288400  0.91093370  1
  H  1455  1  0.09651700  0.67396200  0.02366500  1
  H  1462  1  0.19094600  0.64555200  0.95718470  1
  H  1463  1  0.24114400  0.64714900  0.96142270  1
  H  1464  1  0.23246200  0.69592200  0.02239100  1
  H  1465  1  0.09246300  0.66620100  0.95095270  1
  H  1468  1  0.16756700  0.71769400  0.02022500  1
  H  1469  1  0.18817600  0.69963800  0.04130200  1
  H  1470  1  0.13855600  0.68408100  0.04362200  1
  H  1471  1  0.16046800  0.65556900  0.03513300  1
  H  1483  1  0.65855400  0.09653200  0.52364100  1
  H  1490  1  0.68693600  0.19096200  0.45717600  1
  H  1491  1  0.68540300  0.24115000  0.46141800  1
  H  1492  1  0.63672900  0.23252400  0.52244900  1
  H  1493  1  0.66634400  0.09250800  0.45093000  1
  H  1496  1  0.61482400  0.16760400  0.52020600  1
  H  1497  1  0.63286500  0.18819000  0.54130500  1
  H  1498  1  0.64840800  0.13856500  0.54360700  1
  H  1499  1  0.67693400  0.16047000  0.53514400  1
  H  1511  1  0.39871500  0.67297200  0.16473100  1
  H  1518  1  0.47774400  0.64509700  0.24330900  1
  H  1519  1  0.47293200  0.64770100  0.28482600  1
  H  1520  1  0.39975200  0.69720400  0.27716400  1
  H  1521  1  0.48686200  0.66657300  0.16248400  1
  H  1524  1  0.40152300  0.71746000  0.22327900  1
  H  1525  1  0.37634000  0.69918900  0.24047800  1
  H  1526  1  0.37394800  0.68333000  0.19933300  1
  H  1527  1  0.38412700  0.65511300  0.21781300  1
  H  1539  1  0.93472050  0.66068200  0.16493900  1
  H  1546  1  0.85524500  0.68697700  0.24362400  1
  H  1547  1  0.86086900  0.68488200  0.28512000  1
  H  1548  1  0.93405150  0.63551700  0.27689100  1
  H  1549  1  0.84653300  0.66592000  0.16225100  1
  H  1552  1  0.93126650  0.61508300  0.22278300  1
  H  1553  1  0.95671050  0.63275200  0.24014000  1
  H  1554  1  0.95921150  0.64958900  0.19938200  1
  H  1555  1  0.94894050  0.67748400  0.21816500  1
  H  1567  1  0.67194800  0.93479250  0.66491100  1
  H  1574  1  0.64522200  0.85487500  0.74302500  1
  H  1575  1  0.64770900  0.85957100  0.78456100  1
  H  1576  1  0.69707500  0.93287350  0.77714100  1
  H  1577  1  0.66672900  0.84658800  0.66194400  1
  H  1580  1  0.71735100  0.93123150  0.72312100  1
  H  1581  1  0.69930500  0.95635150  0.74054400  1
  H  1582  1  0.68305900  0.95909250  0.69954900  1
  H  1583  1  0.65497100  0.94876150  0.71811000  1
  H  1595  1  0.65966900  0.39876600  0.66477400  1
  H  1602  1  0.68707600  0.47736500  0.74392300  1
  H  1603  1  0.68488200  0.47162400  0.78539600  1
  H  1604  1  0.63542600  0.39853400  0.77694000  1
  H  1605  1  0.66605900  0.48689300  0.66280800  1
  H  1608  1  0.61497400  0.40146800  0.72296900  1
  H  1609  1  0.63286800  0.37595600  0.74009600  1
  H  1610  1  0.64931500  0.37381000  0.69918300  1
  H  1611  1  0.67734300  0.38392300  0.71787900  1
  C  1  1  0.76822100  0.04793300  0.66015900  1
  C  2  1  0.74120800  0.04748500  0.65019500  1
  C  3  1  0.72126200  0.04759500  0.66790000  1
  C  4  1  0.73534700  0.04770400  0.68938600  1
  C  5  1  0.71984600  0.04762400  0.71047500  1
  C  6  1  0.68989300  0.04755400  0.70987300  1
  C  7  1  0.67620000  0.04782000  0.68764800  1
  C  8  1  0.69165400  0.04765600  0.66666667  1
  C  9  1  0.73747800  0.04625500  0.62590500  1
  C  10  1  0.76162100  0.04535600  0.61167200  1
  C  11  1  0.78943600  0.04612200  0.62136000  1
  C  12  1  0.79251600  0.04730700  0.64595100  1
  C  13  1  0.78035800  0.07208900  0.69752400  1
  C  14  1  0.79798000  0.06285300  0.71564000  1
  C  15  1  0.79873100  0.03334800  0.71522700  1
  C  16  1  0.78080700  0.02411500  0.69736300  1
  C  17  1  0.81310300  0.01352000  0.72918800  1
  C  18  1  0.80950800  0.98438200  0.72462200  1
  C  19  1  0.79261800  0.97467000  0.70568200  1
  C  20  1  0.77767700  0.99517900  0.69245600  1
  C  21  1  0.77584600  0.10109500  0.69354400  1
  C  22  1  0.78798100  0.12141700  0.70874800  1
  C  23  1  0.80307500  0.11145800  0.72857000  1
  C  24  1  0.80931200  0.08249400  0.73154000  1
  C  37  1  0.76640000  0.04802700  0.68591400  1
  C  38  1  0.78903300  0.94634600  0.69949200  1
  C  39  1  0.78230800  0.14982000  0.70460800  1
  C  40  1  0.81320500  0.04513200  0.60718200  1
  C  41  1  0.67455100  0.04814400  0.73063400  1
  C  46  1  0.32647900  0.04559700  0.66065100  1
  C  47  1  0.35379300  0.04672600  0.65125500  1
  C  48  1  0.37324900  0.04705000  0.66948700  1
  C  49  1  0.35837700  0.04555700  0.69055200  1
  C  50  1  0.37291000  0.04558700  0.71209100  1
  C  51  1  0.40277200  0.04839600  0.71272800  1
  C  52  1  0.41707600  0.05180600  0.69105000  1
  C  53  1  0.40275200  0.05039100  0.66945700  1
  C  54  1  0.35793700  0.04809900  0.62699000  1
  C  55  1  0.33406100  0.04869700  0.61235000  1
  C  56  1  0.30603200  0.04779000  0.62159000  1
  C  57  1  0.30247900  0.04626000  0.64610900  1
  C  58  1  0.31314700  0.02133300  0.69772100  1
  C  59  1  0.29554100  0.03063100  0.71582300  1
  C  60  1  0.29480900  0.06014900  0.71537500  1
  C  61  1  0.31291300  0.06931100  0.69761500  1
  C  62  1  0.28041200  0.08004500  0.72925500  1
  C  63  1  0.28409800  0.10917200  0.72467700  1
  C  64  1  0.30114700  0.11883300  0.70581900  1
  C  65  1  0.31617600  0.09825700  0.69272000  1
  C  66  1  0.31771500  0.99235900  0.69373700  1
  C  67  1  0.30559200  0.97205900  0.70894400  1
  C  68  1  0.29045500  0.98202100  0.72874900  1
  C  69  1  0.28418700  0.01098500  0.73170500  1
  C  82  1  0.32748000  0.04530100  0.68639200  1
  C  83  1  0.30477600  0.14716200  0.69961500  1
  C  84  1  0.31141100  0.94369500  0.70481600  1
  C  85  1  0.28245900  0.04900200  0.60715600  1
  C  86  1  0.41632600  0.04899300  0.73444200  1
  C  91  1  0.04797200  0.32556000  0.16011400  1
  C  92  1  0.04754100  0.35258100  0.15015600  1
  C  93  1  0.04759700  0.37252400  0.16787000  1
  C  94  1  0.04768800  0.35842600  0.18935100  1
  C  95  1  0.04759200  0.37391200  0.21044700  1
  C  96  1  0.04752700  0.40386600  0.20986300  1
  C  97  1  0.04779400  0.41757800  0.18765000  1
  C  98  1  0.04765000  0.40213700  0.16666200  1
  C  99  1  0.04627900  0.35631200  0.12586600  1
  C  100  1  0.04539800  0.33217400  0.11162300  1
  C  101  1  0.04615200  0.30435400  0.12129900  1
  C  102  1  0.04734000  0.30127200  0.14589500  1
  C  103  1  0.07210100  0.31347000  0.19753000  1
  C  104  1  0.06285900  0.29581000  0.21561800  1
  C  105  1  0.03335900  0.29504600  0.21519300  1
  C  106  1  0.02412700  0.31296100  0.19732200  1
  C  107  1  0.01353200  0.28070100  0.22917400  1
  C  108  1  0.98439300  0.28429800  0.22461500  1
  C  109  1  0.97468000  0.30116600  0.20566300  1
  C  110  1  0.99518800  0.31608800  0.19241700  1
  C  111  1  0.10110900  0.31795500  0.19353700  1
  C  112  1  0.12143000  0.30580700  0.20873700  1
  C  113  1  0.11146700  0.29074300  0.22857400  1
  C  114  1  0.08249700  0.28455200  0.23155900  1
  C  127  1  0.04803700  0.32737600  0.18587400  1
  C  128  1  0.94635200  0.30477500  0.19950100  1
  C  129  1  0.14983300  0.31148900  0.20460400  1
  C  130  1  0.04511400  0.28058800  0.10710800  1
  C  131  1  0.04814300  0.41917600  0.23063900  1
  C  136  1  0.04564000  0.76729500  0.16074200  1
  C  137  1  0.04675400  0.73998200  0.15134300  1
  C  138  1  0.04702000  0.72052200  0.16956700  1
  C  139  1  0.04553100  0.73539500  0.19063200  1
  C  140  1  0.04554500  0.72085900  0.21216900  1
  C  141  1  0.04836000  0.69099700  0.21279900  1
  C  142  1  0.05176900  0.67669300  0.19112200  1
  C  143  1  0.05032900  0.69101700  0.16952900  1
  C  144  1  0.04810800  0.73583700  0.12707900  1
  C  145  1  0.04871800  0.75971500  0.11244600  1
  C  146  1  0.04779800  0.78774200  0.12169300  1
  C  147  1  0.04627000  0.79129900  0.14620800  1
  C  148  1  0.02133100  0.78063200  0.19779100  1
  C  149  1  0.03062000  0.79827400  0.21587400  1
  C  150  1  0.06013800  0.79900400  0.21543300  1
  C  151  1  0.06930900  0.78085200  0.19770700  1
  C  152  1  0.08003600  0.81338700  0.22932100  1
  C  153  1  0.10916300  0.80969300  0.22475200  1
  C  154  1  0.11882700  0.79264000  0.20589500  1
  C  155  1  0.09825400  0.77758300  0.19281600  1
  C  156  1  0.99236100  0.77606100  0.19380600  1
  C  157  1  0.97205600  0.78819900  0.20900000  1
  C  158  1  0.98200900  0.80338400  0.22878200  1
  C  159  1  0.01096900  0.80969800  0.23171800  1
  C  172  1  0.04530300  0.76629100  0.18647900  1
  C  173  1  0.14715400  0.78902200  0.19968100  1
  C  174  1  0.94369300  0.78238800  0.20486300  1
  C  175  1  0.04898000  0.81131300  0.10726200  1
  C  176  1  0.04901000  0.67744500  0.23450800  1
  C  181  1  0.76984800  0.04859300  0.34534400  1
  C  182  1  0.74346400  0.04725900  0.35630100  1
  C  183  1  0.72262500  0.04726000  0.33908600  1
  C  184  1  0.73583900  0.04798900  0.31719900  1
  C  185  1  0.71983400  0.04755300  0.29638900  1
  C  186  1  0.68997200  0.04647500  0.29752500  1
  C  187  1  0.67694800  0.04578800  0.32003200  1
  C  188  1  0.69303100  0.04621000  0.34076400  1
  C  189  1  0.74173500  0.04441100  0.38070600  1
  C  190  1  0.76700200  0.04305800  0.39374900  1
  C  191  1  0.79402800  0.04562500  0.38302100  1
  C  192  1  0.79503000  0.04827200  0.35837300  1
  C  193  1  0.78097600  0.02444700  0.30813400  1
  C  194  1  0.79871200  0.03359000  0.29011600  1
  C  195  1  0.79789400  0.06311600  0.28958400  1
  C  196  1  0.78044700  0.07243400  0.30777700  1
  C  197  1  0.80918600  0.08279000  0.27369200  1
  C  198  1  0.80307000  0.11177900  0.27675600  1
  C  199  1  0.78801600  0.12171200  0.29661500  1
  C  200  1  0.77598300  0.10140400  0.31185200  1
  C  201  1  0.77789300  0.99553000  0.31319800  1
  C  202  1  0.79267600  0.97492400  0.29994900  1
  C  203  1  0.80946400  0.98453900  0.28091300  1
  C  204  1  0.81300700  0.01365800  0.27620000  1
  C  217  1  0.76691500  0.04847200  0.31974000  1
  C  218  1  0.78232300  0.15007100  0.30088500  1
  C  219  1  0.78904600  0.94661300  0.30620000  1
  C  220  1  0.81954400  0.04460400  0.39517200  1
  C  221  1  0.67425700  0.04524400  0.27695100  1
  C  226  1  0.32478100  0.04555400  0.34486300  1
  C  227  1  0.35150500  0.04621600  0.35531500  1
  C  228  1  0.37190900  0.04594900  0.33756500  1
  C  229  1  0.35785200  0.04637200  0.31606300  1
  C  230  1  0.37286400  0.04659900  0.29477900  1
  C  231  1  0.40279400  0.04514700  0.29460400  1
  C  232  1  0.41659100  0.04305000  0.31665300  1
  C  233  1  0.40157500  0.04409700  0.33802700  1
  C  234  1  0.35360800  0.04828100  0.37978200  1
  C  235  1  0.32856100  0.04964500  0.39322400  1
  C  236  1  0.30124700  0.04788800  0.38284800  1
  C  237  1  0.29984100  0.04586300  0.35819100  1
  C  238  1  0.31250500  0.06972500  0.30791500  1
  C  239  1  0.29466800  0.06050700  0.28999300  1
  C  240  1  0.29561600  0.03096400  0.28944200  1
  C  241  1  0.31326800  0.02173800  0.30752600  1
  C  242  1  0.28430300  0.01119800  0.27364000  1
  C  243  1  0.29053700  0.98223200  0.27672300  1
  C  244  1  0.30568700  0.97236700  0.29655400  1
  C  245  1  0.31785900  0.99277800  0.31163200  1
  C  246  1  0.31565700  0.09860600  0.31299200  1
  C  247  1  0.30082000  0.11920200  0.29980400  1
  C  248  1  0.28399400  0.10958300  0.28078500  1
  C  249  1  0.28038300  0.08045800  0.27609300  1
  C  262  1  0.32692000  0.04582000  0.31926400  1
  C  263  1  0.31133800  0.94400000  0.30092400  1
  C  264  1  0.30455000  0.14747700  0.30610700  1
  C  265  1  0.27576100  0.04900400  0.39515200  1
  C  266  1  0.41652900  0.04475700  0.27288400  1
  C  271  1  0.04523000  0.76989500  0.84541600  1
  C  272  1  0.04651500  0.74349700  0.85635200  1
  C  273  1  0.04652200  0.72267000  0.83912100  1
  C  274  1  0.04581400  0.73590200  0.81724300  1
  C  275  1  0.04622100  0.71991100  0.79642300  1
  C  276  1  0.04728200  0.69004400  0.79753400  1
  C  277  1  0.04796700  0.67700200  0.82003000  1
  C  278  1  0.04755600  0.69307000  0.84077300  1
  C  279  1  0.04934200  0.74175100  0.88075800  1
  C  280  1  0.05069000  0.76700600  0.89382500  1
  C  281  1  0.04812300  0.79404700  0.88313200  1
  C  282  1  0.04549400  0.79506300  0.85847500  1
  C  283  1  0.06935000  0.78103600  0.80818600  1
  C  284  1  0.06020000  0.79875700  0.79016000  1
  C  285  1  0.03067600  0.79794200  0.78963300  1
  C  286  1  0.02135900  0.78051200  0.80784000  1
  C  287  1  0.01101100  0.80922400  0.77373100  1
  C  288  1  0.98203000  0.80306300  0.77676700  1
  C  289  1  0.97208600  0.78804400  0.79663800  1
  C  290  1  0.99238800  0.77602900  0.81189300  1
  C  291  1  0.09827300  0.77793600  0.81322100  1
  C  292  1  0.11887200  0.79269300  0.79994400  1
  C  293  1  0.10924500  0.80946800  0.78090400  1
  C  294  1  0.08012200  0.81303700  0.77622300  1
  C  307  1  0.04532800  0.76698100  0.81980300  1
  C  308  1  0.94372900  0.78231500  0.80087300  1
  C  309  1  0.14719000  0.78904600  0.80615800  1
  C  310  1  0.04916100  0.81956500  0.89530800  1
  C  311  1  0.04852200  0.67436000  0.77694200  1
  C  316  1  0.04826200  0.32482600  0.84477800  1
  C  317  1  0.04765500  0.35154500  0.85524200  1
  C  318  1  0.04787700  0.37194800  0.83749500  1
  C  319  1  0.04742700  0.35789000  0.81599300  1
  C  320  1  0.04721900  0.37290300  0.79471100  1
  C  321  1  0.04868600  0.40282900  0.79454200  1
  C  322  1  0.05076900  0.41662900  0.81659000  1
  C  323  1  0.04973600  0.40161000  0.83796300  1
  C  324  1  0.04552700  0.35364300  0.87970600  1
  C  325  1  0.04415400  0.32859000  0.89313600  1
  C  326  1  0.04591800  0.30128600  0.88274000  1
  C  327  1  0.04794400  0.29987900  0.85808800  1
  C  328  1  0.02407800  0.31254600  0.80784200  1
  C  329  1  0.03329000  0.29472100  0.78991100  1
  C  330  1  0.06283500  0.29562900  0.78937900  1
  C  331  1  0.07206500  0.31329900  0.80745000  1
  C  332  1  0.08260300  0.28431500  0.77357800  1
  C  333  1  0.11157100  0.29054100  0.77666700  1
  C  334  1  0.12144100  0.30566500  0.79651000  1
  C  335  1  0.10102900  0.31784100  0.81158300  1
  C  336  1  0.99520100  0.31568800  0.81293800  1
  C  337  1  0.97460000  0.30084300  0.79976000  1
  C  338  1  0.98421200  0.28399200  0.78075300  1
  C  339  1  0.01333500  0.28039300  0.77604400  1
  C  352  1  0.04798800  0.32696100  0.81918500  1
  C  353  1  0.14980400  0.31134500  0.80086400  1
  C  354  1  0.94633200  0.30454600  0.80609300  1
  C  355  1  0.04480100  0.27580700  0.89502700  1
  C  356  1  0.04905300  0.41656600  0.77282600  1
  C  361  1  0.81981200  0.91155600  0.72087700  1
  C  362  1  0.84697500  0.92192500  0.72599400  1
  C  363  1  0.86560800  0.90718100  0.74120400  1
  C  364  1  0.85755300  0.87995000  0.75003800  1
  C  365  1  0.82995000  0.86960400  0.74439000  1
  C  366  1  0.81167900  0.88527100  0.72992700  1
  C  368  1  0.87521400  0.86203800  0.76466700  1
  C  369  1  0.90520400  0.86251700  0.76403400  1
  C  370  1  0.92160700  0.84292700  0.77657100  1
  C  371  1  0.90870600  0.82030200  0.78845700  1
  C  372  1  0.87901800  0.81953600  0.78963600  1
  C  373  1  0.86238200  0.84029500  0.77840100  1
  C  378  1  0.83107000  0.83787800  0.77899100  1
  C  379  1  0.81946400  0.84224600  0.75402600  1
  C  389  1  0.27398600  0.18212500  0.72087400  1
  C  390  1  0.24680500  0.17180400  0.72598700  1
  C  391  1  0.22817100  0.18659000  0.74117200  1
  C  392  1  0.23622900  0.21382800  0.74999000  1
  C  393  1  0.26384200  0.22414300  0.74434100  1
  C  394  1  0.28211900  0.20842900  0.72990200  1
  C  396  1  0.21855900  0.23177300  0.76459600  1
  C  397  1  0.18856600  0.23121900  0.76402300  1
  C  398  1  0.17213900  0.25078800  0.77656200  1
  C  399  1  0.18500000  0.27352900  0.78832900  1
  C  400  1  0.21469100  0.27432600  0.78951200  1
  C  401  1  0.23135900  0.25355600  0.77830900  1
  C  406  1  0.26267200  0.25596900  0.77890500  1
  C  407  1  0.27432600  0.25151500  0.75396100  1
  C  417  1  0.91155800  0.27398700  0.22088200  1
  C  418  1  0.92193300  0.24682700  0.22600600  1
  C  419  1  0.90718500  0.22819200  0.24121200  1
  C  420  1  0.87994900  0.23624200  0.25004100  1
  C  421  1  0.86959800  0.26384000  0.24438700  1
  C  422  1  0.88526600  0.28211200  0.22992300  1
  C  424  1  0.86204100  0.21858100  0.26467300  1
  C  425  1  0.86252900  0.18859200  0.26405000  1
  C  426  1  0.84294600  0.17218900  0.27659200  1
  C  427  1  0.82031500  0.18509100  0.28847300  1
  C  428  1  0.81954000  0.21477800  0.28964300  1
  C  429  1  0.84029500  0.23141500  0.27840500  1
  C  434  1  0.83787100  0.26272600  0.27898800  1
  C  435  1  0.84223700  0.27432400  0.25402000  1
  C  445  1  0.18211400  0.81981700  0.22093100  1
  C  446  1  0.17179300  0.84699900  0.22604300  1
  C  447  1  0.18657600  0.86563400  0.24122600  1
  C  448  1  0.21381600  0.85757700  0.25004400  1
  C  449  1  0.22413100  0.82996400  0.24439700  1
  C  450  1  0.20841800  0.81168500  0.22996000  1
  C  452  1  0.23176000  0.87524900  0.26465000  1
  C  453  1  0.23120400  0.90524100  0.26407400  1
  C  454  1  0.25077200  0.92167000  0.27661500  1
  C  455  1  0.27351000  0.90881200  0.28838200  1
  C  456  1  0.27431100  0.87912000  0.28956500  1
  C  457  1  0.25354400  0.86245200  0.27836100  1
  C  462  1  0.25595700  0.83113700  0.27895800  1
  C  463  1  0.25150200  0.81948200  0.25401500  1
  C  473  1  0.27391800  0.18236900  0.28482000  1
  C  474  1  0.24675000  0.17199900  0.27972600  1
  C  475  1  0.22812700  0.18671400  0.26449200  1
  C  476  1  0.23617700  0.21394200  0.25564300  1
  C  477  1  0.26378100  0.22429300  0.26127900  1
  C  478  1  0.28205500  0.20864100  0.27575200  1
  C  480  1  0.21849600  0.23185800  0.24103000  1
  C  481  1  0.18850800  0.23135500  0.24167800  1
  C  482  1  0.17207600  0.25093400  0.22915300  1
  C  483  1  0.18492700  0.27358100  0.21725500  1
  C  484  1  0.21462000  0.27438000  0.21608200  1
  C  485  1  0.23129300  0.25363200  0.22730700  1
  C  490  1  0.26260700  0.25605100  0.22669200  1
  C  491  1  0.27426200  0.25165100  0.25163900  1
  C  501  1  0.81975500  0.91167600  0.28488700  1
  C  502  1  0.84691800  0.92202500  0.27974500  1
  C  503  1  0.86554400  0.90724600  0.26455000  1
  C  504  1  0.85747800  0.88000900  0.25573400  1
  C  505  1  0.82987800  0.86967700  0.26140500  1
  C  506  1  0.81161600  0.88537400  0.27586400  1
  C  508  1  0.87512200  0.86207800  0.24110200  1
  C  509  1  0.90511400  0.86261000  0.24166900  1
  C  510  1  0.92151100  0.84302200  0.22912700  1
  C  511  1  0.90861300  0.82029500  0.21736700  1
  C  512  1  0.87892600  0.81953100  0.21618200  1
  C  513  1  0.86229200  0.84032000  0.22738400  1
  C  518  1  0.83097900  0.83791000  0.22681500  1
  C  519  1  0.81938400  0.84231200  0.25178400  1
  C  529  1  0.18210700  0.81975600  0.78481700  1
  C  530  1  0.17175600  0.84691900  0.77967400  1
  C  531  1  0.18654600  0.86555500  0.76449600  1
  C  532  1  0.21379100  0.85749700  0.75569000  1
  C  533  1  0.22412100  0.82989500  0.76135700  1
  C  534  1  0.20842200  0.81163000  0.77581100  1
  C  536  1  0.23171900  0.87514900  0.74105800  1
  C  537  1  0.23121400  0.90513800  0.74164600  1
  C  538  1  0.25078700  0.92153300  0.72908500  1
  C  539  1  0.27344900  0.90863800  0.71723900  1
  C  540  1  0.27424200  0.87894700  0.71610500  1
  C  541  1  0.25348100  0.86231300  0.72734700  1
  C  546  1  0.25590000  0.83100000  0.72677700  1
  C  547  1  0.25149300  0.81940700  0.75174400  1
  C  557  1  0.91142400  0.27390900  0.78482700  1
  C  558  1  0.92179300  0.24674300  0.77973500  1
  C  559  1  0.90709000  0.22813000  0.76448400  1
  C  560  1  0.87987000  0.23618600  0.75562400  1
  C  561  1  0.86951800  0.26378800  0.76126200  1
  C  562  1  0.88516700  0.28206100  0.77573800  1
  C  564  1  0.86195100  0.21850800  0.74101100  1
  C  565  1  0.86248300  0.18851800  0.74163600  1
  C  566  1  0.84288700  0.17208100  0.72913200  1
  C  567  1  0.82017400  0.18493600  0.71732100  1
  C  568  1  0.81940100  0.21462500  0.71609800  1
  C  569  1  0.84017900  0.23129900  0.72728200  1
  C  574  1  0.83776700  0.26261200  0.72666600  1
  C  575  1  0.84216500  0.27427000  0.75161400  1
  C  585  1  0.47075400  0.04470600  0.73895800  1
  C  586  1  0.48505200  0.04586400  0.76053100  1
  C  587  1  0.51499700  0.04438300  0.76185000  1
  C  588  1  0.53109200  0.04316900  0.74069100  1
  C  589  1  0.51630900  0.04087000  0.71899400  1
  C  590  1  0.48659100  0.04099700  0.71845400  1
  C  592  1  0.56157000  0.04118800  0.73999400  1
  C  593  1  0.57933800  0.05530300  0.75626400  1
  C  594  1  0.60896400  0.05444000  0.75426900  1
  C  595  1  0.62147400  0.03977300  0.73558100  1
  C  596  1  0.60437200  0.02652400  0.71874100  1
  C  597  1  0.57468900  0.02729000  0.72065700  1
  C  602  1  0.55708600  0.01639100  0.70102000  1
  C  603  1  0.53219500  0.03689800  0.69670600  1
  C  613  1  0.04472400  0.62302000  0.23899300  1
  C  614  1  0.04590500  0.60870800  0.26055800  1
  C  615  1  0.04438300  0.57876800  0.26186700  1
  C  616  1  0.04313400  0.56268600  0.24070100  1
  C  617  1  0.04087400  0.57747900  0.21900800  1
  C  618  1  0.04101100  0.60719800  0.21848100  1
  C  620  1  0.04117800  0.53220800  0.23999100  1
  C  621  1  0.05525000  0.51444800  0.25629400  1
  C  622  1  0.05441000  0.48482000  0.25430200  1
  C  623  1  0.03990700  0.47232400  0.23551900  1
  C  624  1  0.02661900  0.48939900  0.21869000  1
  C  625  1  0.02730000  0.51908000  0.22064400  1
  C  630  1  0.01638900  0.53670000  0.20102300  1
  C  631  1  0.03689000  0.56160200  0.19671700  1
  C  641  1  0.47089600  0.04872200  0.26760400  1
  C  642  1  0.48497100  0.04780600  0.24589500  1
  C  643  1  0.51493700  0.04932000  0.24437300  1
  C  644  1  0.53123200  0.05055500  0.26543700  1
  C  645  1  0.51659800  0.05244600  0.28723900  1
  C  646  1  0.48693000  0.05207400  0.28799500  1
  C  648  1  0.56171400  0.05289800  0.26609200  1
  C  649  1  0.57975200  0.03886100  0.24996600  1
  C  650  1  0.60937700  0.03951000  0.25242800  1
  C  651  1  0.62158200  0.05408200  0.27133300  1
  C  652  1  0.60419600  0.06757400  0.28780200  1
  C  653  1  0.57458700  0.06689900  0.28550300  1
  C  658  1  0.55681100  0.07767600  0.30506800  1
  C  659  1  0.53249900  0.05656800  0.30948800  1
  C  669  1  0.04507500  0.47093100  0.76757800  1
  C  670  1  0.04601300  0.48501300  0.74587400  1
  C  671  1  0.04445600  0.51497700  0.74436100  1
  C  672  1  0.04318500  0.53126000  0.76542900  1
  C  673  1  0.04133400  0.51662400  0.78722800  1
  C  674  1  0.04171000  0.48695400  0.78797600  1
  C  676  1  0.04086900  0.56174400  0.76610100  1
  C  677  1  0.05485800  0.57977500  0.74993400  1
  C  678  1  0.05424200  0.60940300  0.75239500  1
  C  679  1  0.03986500  0.62158800  0.77141400  1
  C  680  1  0.02631800  0.60423600  0.78786500  1
  C  681  1  0.02689500  0.57463100  0.78551900  1
  C  686  1  0.01610000  0.55684000  0.80506600  1
  C  687  1  0.03719500  0.53251300  0.80948300  1
  C  697  1  0.82320300  0.04841100  0.44024600  1
  C  698  1  0.84924500  0.04784300  0.45209500  1
  C  699  1  0.85055700  0.04932000  0.47686000  1
  C  700  1  0.82481400  0.05024400  0.48993400  1
  C  701  1  0.79860900  0.05185100  0.47762800  1
  C  702  1  0.79816600  0.05138300  0.45309100  1
  C  704  1  0.82378800  0.05284800  0.51500800  1
  C  705  1  0.84319000  0.03880700  0.52997400  1
  C  706  1  0.84046500  0.04012300  0.55443700  1
  C  707  1  0.81803700  0.05548800  0.56430500  1
  C  708  1  0.79797000  0.06868700  0.54986400  1
  C  709  1  0.80041100  0.06721000  0.52539100  1
  C  714  1  0.77661200  0.07743200  0.51055600  1
  C  715  1  0.77156100  0.05604200  0.49056000  1
  C  725  1  0.27148200  0.04570900  0.44023900  1
  C  726  1  0.24532600  0.04605600  0.45196800  1
  C  727  1  0.24383500  0.04451100  0.47675300  1
  C  728  1  0.26948900  0.04351100  0.48995800  1
  C  729  1  0.29578000  0.04229500  0.47773100  1
  C  730  1  0.29641900  0.04306800  0.45321500  1
  C  732  1  0.27051400  0.04069700  0.51505500  1
  C  733  1  0.25119200  0.05461600  0.53019200  1
  C  734  1  0.25441200  0.05361400  0.55465700  1
  C  735  1  0.27729200  0.03870700  0.56434500  1
  C  736  1  0.29695800  0.02522100  0.54975000  1
  C  737  1  0.29401500  0.02638400  0.52531400  1
  C  742  1  0.31766700  0.01616800  0.51032700  1
  C  743  1  0.32280200  0.03793900  0.49065100  1
  C  753  1  0.04817700  0.27155600  0.94008900  1
  C  754  1  0.04785500  0.24534100  0.95171500  1
  C  755  1  0.04932800  0.24375000  0.97648400  1
  C  756  1  0.05021000  0.26935400  0.98975700  1
  C  757  1  0.05156300  0.29570600  0.97764700  1
  C  758  1  0.05082600  0.29645100  0.95313200  1
  C  760  1  0.05290300  0.27017700  0.01483800  1
  C  761  1  0.03888700  0.25068900  0.02974400  1
  C  762  1  0.04012800  0.25335400  0.05421800  1
  C  763  1  0.05539300  0.27580300  0.06416800  1
  C  764  1  0.06861100  0.29591700  0.04979100  1
  C  765  1  0.06721900  0.29353100  0.02530800  1
  C  770  1  0.07740100  0.31740900  0.01054700  1
  C  771  1  0.05584300  0.32264200  0.99071200  1
  C  781  1  0.04547600  0.82325400  0.94041100  1
  C  782  1  0.04606200  0.84923500  0.95236600  1
  C  783  1  0.04451100  0.85044600  0.97714400  1
  C  784  1  0.04346800  0.82465500  0.99015300  1
  C  785  1  0.04200300  0.79851400  0.97772800  1
  C  786  1  0.04252000  0.79817700  0.95319000  1
  C  788  1  0.04074400  0.82343000  0.01524400  1
  C  789  1  0.05468100  0.84267200  0.03043900  1
  C  790  1  0.05361400  0.83939200  0.05489000  1
  C  791  1  0.03863000  0.81651800  0.06450300  1
  C  792  1  0.02516900  0.79689600  0.04985000  1
  C  793  1  0.02640000  0.79990000  0.02541800  1
  C  798  1  0.01614100  0.77633000  0.01035800  1
  C  799  1  0.03773800  0.77137900  0.99051400  1
  C  809  1  0.38759200  0.66730400  0.38016000  1
  C  810  1  0.36057900  0.66685600  0.37019600  1
  C  811  1  0.34063300  0.66696600  0.38790100  1
  C  812  1  0.35471800  0.66707500  0.40938700  1
  C  813  1  0.33921700  0.66699500  0.43047600  1
  C  814  1  0.30926400  0.66692500  0.42987400  1
  C  815  1  0.29557100  0.66719100  0.40764900  1
  C  816  1  0.31102500  0.66702700  0.38667200  1
  C  817  1  0.35684900  0.66562600  0.34590600  1
  C  818  1  0.38099200  0.66472700  0.33167300  1
  C  819  1  0.40880700  0.66549300  0.34136100  1
  C  820  1  0.41188700  0.66666667  0.36595200  1
  C  821  1  0.39972900  0.69146000  0.41752500  1
  C  822  1  0.41735100  0.68222400  0.43564100  1
  C  823  1  0.41810200  0.65271900  0.43522800  1
  C  824  1  0.40017800  0.64348600  0.41736400  1
  C  825  1  0.43247400  0.63289100  0.44918900  1
  C  826  1  0.42887900  0.60375300  0.44462300  1
  C  827  1  0.41198900  0.59404100  0.42568300  1
  C  828  1  0.39704800  0.61455000  0.41245700  1
  C  829  1  0.39521700  0.72046600  0.41354500  1
  C  830  1  0.40735200  0.74078800  0.42874900  1
  C  831  1  0.42244600  0.73082900  0.44857100  1
  C  832  1  0.42868300  0.70186500  0.45154100  1
  C  845  1  0.38577100  0.66739800  0.40591500  1
  C  846  1  0.40840400  0.56571700  0.41949300  1
  C  847  1  0.40167900  0.76919100  0.42460900  1
  C  848  1  0.43257600  0.66450300  0.32718300  1
  C  849  1  0.29392200  0.66751500  0.45063500  1
  C  854  1  0.94585050  0.66496800  0.38065200  1
  C  855  1  0.97316450  0.66609700  0.37125600  1
  C  856  1  0.99262046  0.66642100  0.38948800  1
  C  857  1  0.97774850  0.66492800  0.41055300  1
  C  858  1  0.99228146  0.66495800  0.43209200  1
  C  859  1  0.02214300  0.66776700  0.43272900  1
  C  860  1  0.03644700  0.67117700  0.41105100  1
  C  861  1  0.02212300  0.66976200  0.38945800  1
  C  862  1  0.97730850  0.66747000  0.34699100  1
  C  863  1  0.95343250  0.66806800  0.33235100  1
  C  864  1  0.92540350  0.66716100  0.34159100  1
  C  865  1  0.92185050  0.66563100  0.36611000  1
  C  866  1  0.93251850  0.64070400  0.41772200  1
  C  867  1  0.91491250  0.65000200  0.43582400  1
  C  868  1  0.91418050  0.67952000  0.43537600  1
  C  869  1  0.93228450  0.68868200  0.41761600  1
  C  870  1  0.89978300  0.69941600  0.44925600  1
  C  871  1  0.90346950  0.72854300  0.44467800  1
  C  872  1  0.92051850  0.73820400  0.42582000  1
  C  873  1  0.93554750  0.71762800  0.41272100  1
  C  874  1  0.93708650  0.61173000  0.41373800  1
  C  875  1  0.92496350  0.59143000  0.42894500  1
  C  876  1  0.90982650  0.60139200  0.44875000  1
  C  877  1  0.90355850  0.63035600  0.45170600  1
  C  890  1  0.94685150  0.66467200  0.40639300  1
  C  891  1  0.92414750  0.76653300  0.41961600  1
  C  892  1  0.93078250  0.56306600  0.42481700  1
  C  893  1  0.90183050  0.66837300  0.32715700  1
  C  894  1  0.03569700  0.66836400  0.45444300  1
  C  899  1  0.66734300  0.94493150  0.88011500  1
  C  900  1  0.66691200  0.97195250  0.87015700  1
  C  901  1  0.66696800  0.99189546  0.88787100  1
  C  902  1  0.66705900  0.97779750  0.90935170  1
  C  903  1  0.66696300  0.99328346  0.93044770  1
  C  904  1  0.66689800  0.02323700  0.92986370  1
  C  905  1  0.66716500  0.03694900  0.90765070  1
  C  906  1  0.66702100  0.02150800  0.88666300  1
  C  907  1  0.66565000  0.97568350  0.84586700  1
  C  908  1  0.66476900  0.95154550  0.83162400  1
  C  909  1  0.66552300  0.92372550  0.84130000  1
  C  910  1  0.66671100  0.92064350  0.86589600  1
  C  911  1  0.69147200  0.93284150  0.91753070  1
  C  912  1  0.68223000  0.91518150  0.93561870  1
  C  913  1  0.65273000  0.91441750  0.93519370  1
  C  914  1  0.64349800  0.93233250  0.91732270  1
  C  915  1  0.63290300  0.90007250  0.94917470  1
  C  916  1  0.60376400  0.90366950  0.94461570  1
  C  917  1  0.59405100  0.92053750  0.92566370  1
  C  918  1  0.61455900  0.93545950  0.91241770  1
  C  919  1  0.72048000  0.93732650  0.91353770  1
  C  920  1  0.74080100  0.92517850  0.92873770  1
  C  921  1  0.73083800  0.91011450  0.94857470  1
  C  922  1  0.70186800  0.90392350  0.95155970  1
  C  935  1  0.66740800  0.94674750  0.90587470  1
  C  936  1  0.56572300  0.92414650  0.91950170  1
  C  937  1  0.76920400  0.93086050  0.92460470  1
  C  938  1  0.66448500  0.89995900  0.82710900  1
  C  939  1  0.66751400  0.03854700  0.95063970  1
  C  944  1  0.66501100  0.38666600  0.88074300  1
  C  945  1  0.66612500  0.35935300  0.87134400  1
  C  946  1  0.66639100  0.33989300  0.88956800  1
  C  947  1  0.66490200  0.35476600  0.91063270  1
  C  948  1  0.66491600  0.34023000  0.93216970  1
  C  949  1  0.66773100  0.31036800  0.93279970  1
  C  950  1  0.67114000  0.29606400  0.91112270  1
  C  951  1  0.66970000  0.31038800  0.88953000  1
  C  952  1  0.66747900  0.35520800  0.84708000  1
  C  953  1  0.66808900  0.37908600  0.83244700  1
  C  954  1  0.66716900  0.40711300  0.84169400  1
  C  955  1  0.66564100  0.41067000  0.86620900  1
  C  956  1  0.64070200  0.40000300  0.91779170  1
  C  957  1  0.64999100  0.41764500  0.93587470  1
  C  958  1  0.67950900  0.41837500  0.93543370  1
  C  959  1  0.68868000  0.40022300  0.91770770  1
  C  960  1  0.69940700  0.43275800  0.94932170  1
  C  961  1  0.72853400  0.42906400  0.94475270  1
  C  962  1  0.73819800  0.41201100  0.92589570  1
  C  963  1  0.71762500  0.39695400  0.91281670  1
  C  964  1  0.61173200  0.39543200  0.91380670  1
  C  965  1  0.59142700  0.40757000  0.92900070  1
  C  966  1  0.60138000  0.42275500  0.94878270  1
  C  967  1  0.63034000  0.42906900  0.95171870  1
  C  980  1  0.66467400  0.38566200  0.90647970  1
  C  981  1  0.76652500  0.40839300  0.91968170  1
  C  982  1  0.56306400  0.40175900  0.92486370  1
  C  983  1  0.66835100  0.43068400  0.82726300  1
  C  984  1  0.66838100  0.29681600  0.95450870  1
  C  989  1  0.38921900  0.66796400  0.06534500  1
  C  990  1  0.36283500  0.66663000  0.07630200  1
  C  991  1  0.34199600  0.66663100  0.05908700  1
  C  992  1  0.35521000  0.66736000  0.03720000  1
  C  993  1  0.33920500  0.66692400  0.01639000  1
  C  994  1  0.30934300  0.66584600  0.01752600  1
  C  995  1  0.29631900  0.66515900  0.04003300  1
  C  996  1  0.31240200  0.66558100  0.06076500  1
  C  997  1  0.36110600  0.66378200  0.10070700  1
  C  998  1  0.38637300  0.66242900  0.11375000  1
  C  999  1  0.41339900  0.66499600  0.10302200  1
  C  1000  1  0.41440100  0.66764300  0.07837400  1
  C  1001  1  0.40034700  0.64381800  0.02813500  1
  C  1002  1  0.41808300  0.65296100  0.01011700  1
  C  1003  1  0.41726500  0.68248700  0.00958500  1
  C  1004  1  0.39981800  0.69180500  0.02777800  1
  C  1005  1  0.42855700  0.70216100  0.99369270  1
  C  1006  1  0.42244100  0.73115000  0.99675670  1
  C  1007  1  0.40738700  0.74108300  0.01661600  1
  C  1008  1  0.39535400  0.72077500  0.03185300  1
  C  1009  1  0.39726400  0.61490100  0.03319900  1
  C  1010  1  0.41204700  0.59429500  0.01995000  1
  C  1011  1  0.42883500  0.60391000  0.00091400  1
  C  1012  1  0.43237800  0.63302900  0.99620070  1
  C  1025  1  0.38628600  0.66784300  0.03974100  1
  C  1026  1  0.40169400  0.76944200  0.02088600  1
  C  1027  1  0.40841700  0.56598400  0.02620100  1
  C  1028  1  0.43891500  0.66397500  0.11517300  1
  C  1029  1  0.29362800  0.66461500  0.99695170  1
  C  1034  1  0.94415250  0.66492500  0.06486400  1
  C  1035  1  0.97087650  0.66558700  0.07531600  1
  C  1036  1  0.99128046  0.66532000  0.05756600  1
  C  1037  1  0.97722350  0.66574300  0.03606400  1
  C  1038  1  0.99223546  0.66597000  0.01478000  1
  C  1039  1  0.02216500  0.66451800  0.01460500  1
  C  1040  1  0.03596200  0.66242100  0.03665400  1
  C  1041  1  0.02094600  0.66346800  0.05802800  1
  C  1042  1  0.97297950  0.66765200  0.09978300  1
  C  1043  1  0.94793250  0.66901600  0.11322500  1
  C  1044  1  0.92061850  0.66725900  0.10284900  1
  C  1045  1  0.91921250  0.66523400  0.07819200  1
  C  1046  1  0.93187650  0.68909600  0.02791600  1
  C  1047  1  0.91403950  0.67987800  0.00999400  1
  C  1048  1  0.91498750  0.65033500  0.00944300  1
  C  1049  1  0.93263950  0.64110900  0.02752700  1
  C  1050  1  0.90367450  0.63056900  0.99364070  1
  C  1051  1  0.90990850  0.60160300  0.99672370  1
  C  1052  1  0.92505850  0.59173800  0.01655500  1
  C  1053  1  0.93723050  0.61214900  0.03163300  1
  C  1054  1  0.93502850  0.71797700  0.03299300  1
  C  1055  1  0.92019150  0.73857300  0.01980500  1
  C  1056  1  0.90336550  0.72895400  0.00078600  1
  C  1057  1  0.89975400  0.69982900  0.99609370  1
  C  1070  1  0.94629150  0.66519100  0.03926500  1
  C  1071  1  0.93070950  0.56337100  0.02092500  1
  C  1072  1  0.92392150  0.76684800  0.02610800  1
  C  1073  1  0.89513200  0.66837500  0.11515300  1
  C  1074  1  0.03590000  0.66412800  0.99288470  1
  C  1079  1  0.66460100  0.38926600  0.56541700  1
  C  1080  1  0.66588600  0.36286800  0.57635300  1
  C  1081  1  0.66589300  0.34204100  0.55912200  1
  C  1082  1  0.66518500  0.35527300  0.53724400  1
  C  1083  1  0.66559200  0.33928200  0.51642400  1
  C  1084  1  0.66666667  0.30941500  0.51753500  1
  C  1085  1  0.66733800  0.29637300  0.54003100  1
  C  1086  1  0.66692700  0.31244100  0.56077400  1
  C  1087  1  0.66871300  0.36112200  0.60075900  1
  C  1088  1  0.67006100  0.38637700  0.61382600  1
  C  1089  1  0.66749400  0.41341800  0.60313300  1
  C  1090  1  0.66486500  0.41443400  0.57847600  1
  C  1091  1  0.68872100  0.40040700  0.52818700  1
  C  1092  1  0.67957100  0.41812800  0.51016100  1
  C  1093  1  0.65004700  0.41731300  0.50963400  1
  C  1094  1  0.64073000  0.39988300  0.52784100  1
  C  1095  1  0.63038200  0.42859500  0.49373200  1
  C  1096  1  0.60140100  0.42243400  0.49676800  1
  C  1097  1  0.59145700  0.40741500  0.51663900  1
  C  1098  1  0.61175900  0.39540000  0.53189400  1
  C  1099  1  0.71764400  0.39730700  0.53322200  1
  C  1100  1  0.73824300  0.41206400  0.51994500  1
  C  1101  1  0.72861600  0.42883900  0.50090500  1
  C  1102  1  0.69949300  0.43240800  0.49622400  1
  C  1115  1  0.66469900  0.38635200  0.53980400  1
  C  1116  1  0.56310000  0.40168600  0.52087400  1
  C  1117  1  0.76656100  0.40841700  0.52615900  1
  C  1118  1  0.66853200  0.43893600  0.61530900  1
  C  1119  1  0.66789300  0.29373100  0.49694300  1
  C  1124  1  0.66763300  0.94419750  0.56477900  1
  C  1125  1  0.66702600  0.97091650  0.57524300  1
  C  1126  1  0.66724800  0.99131946  0.55749600  1
  C  1127  1  0.66679800  0.97726150  0.53599400  1
  C  1128  1  0.66659000  0.99227446  0.51471200  1
  C  1129  1  0.66805700  0.02220000  0.51454300  1
  C  1130  1  0.67014000  0.03600000  0.53659100  1
  C  1131  1  0.66910700  0.02098100  0.55796400  1
  C  1132  1  0.66489800  0.97301450  0.59970700  1
  C  1133  1  0.66352500  0.94796150  0.61313700  1
  C  1134  1  0.66528900  0.92065750  0.60274100  1
  C  1135  1  0.66731500  0.91925050  0.57808900  1
  C  1136  1  0.64344900  0.93191750  0.52784300  1
  C  1137  1  0.65266100  0.91409250  0.50991200  1
  C  1138  1  0.68220600  0.91500050  0.50938000  1
  C  1139  1  0.69143600  0.93267050  0.52745100  1
  C  1140  1  0.70197400  0.90368650  0.49357900  1
  C  1141  1  0.73094200  0.90991250  0.49666800  1
  C  1142  1  0.74081200  0.92503650  0.51651100  1
  C  1143  1  0.72040000  0.93721250  0.53158400  1
  C  1144  1  0.61457200  0.93505950  0.53293900  1
  C  1145  1  0.59397100  0.92021450  0.51976100  1
  C  1146  1  0.60358300  0.90336350  0.50075400  1
  C  1147  1  0.63270600  0.89976400  0.49604500  1
  C  1160  1  0.66735900  0.94633250  0.53918600  1
  C  1161  1  0.76917500  0.93071650  0.52086500  1
  C  1162  1  0.56570300  0.92391750  0.52609400  1
  C  1163  1  0.66417200  0.89517800  0.61502800  1
  C  1164  1  0.66842400  0.03593700  0.49282700  1
  C  1169  1  0.43918300  0.53092700  0.44087800  1
  C  1170  1  0.46634600  0.54129600  0.44599500  1
  C  1171  1  0.48497900  0.52655200  0.46120500  1
  C  1172  1  0.47692400  0.49932100  0.47003900  1
  C  1173  1  0.44932100  0.48897500  0.46439100  1
  C  1174  1  0.43105000  0.50464200  0.44992800  1
  C  1176  1  0.49458500  0.48140900  0.48466800  1
  C  1177  1  0.52457500  0.48188800  0.48403500  1
  C  1178  1  0.54097800  0.46229800  0.49657200  1
  C  1179  1  0.52807700  0.43967300  0.50845800  1
  C  1180  1  0.49838900  0.43890700  0.50963700  1
  C  1181  1  0.48175300  0.45966600  0.49840200  1
  C  1186  1  0.45044100  0.45724900  0.49899200  1
  C  1187  1  0.43883500  0.46161700  0.47402700  1
  C  1197  1  0.89335700  0.80149600  0.44087500  1
  C  1198  1  0.86617600  0.79117500  0.44598800  1
  C  1199  1  0.84754200  0.80596100  0.46117300  1
  C  1200  1  0.85560000  0.83319900  0.46999100  1
  C  1201  1  0.88321300  0.84351400  0.46434200  1
  C  1202  1  0.90149050  0.82780000  0.44990300  1
  C  1204  1  0.83793000  0.85114400  0.48459700  1
  C  1205  1  0.80793700  0.85059000  0.48402400  1
  C  1206  1  0.79151000  0.87015900  0.49656300  1
  C  1207  1  0.80437100  0.89290000  0.50833000  1
  C  1208  1  0.83406200  0.89369700  0.50951300  1
  C  1209  1  0.85073000  0.87292700  0.49831000  1
  C  1214  1  0.88204300  0.87534000  0.49890600  1
  C  1215  1  0.89369700  0.87088600  0.47396200  1
  C  1225  1  0.53092900  0.89335800  0.94088270  1
  C  1226  1  0.54130400  0.86619800  0.94600670  1
  C  1227  1  0.52655600  0.84756300  0.96121270  1
  C  1228  1  0.49932000  0.85561300  0.97004170  1
  C  1229  1  0.48896900  0.88321100  0.96438770  1
  C  1230  1  0.50463700  0.90148350  0.94992370  1
  C  1232  1  0.48141200  0.83795200  0.98467370  1
  C  1233  1  0.48190000  0.80796300  0.98405070  1
  C  1234  1  0.46231700  0.79156000  0.99659270  1
  C  1235  1  0.43968600  0.80446200  0.00847400  1
  C  1236  1  0.43891100  0.83414900  0.00964400  1
  C  1237  1  0.45966600  0.85078600  0.99840570  1
  C  1242  1  0.45724200  0.88209700  0.99898870  1
  C  1243  1  0.46160800  0.89369500  0.97402070  1
  C  1253  1  0.80148500  0.43918800  0.94093170  1
  C  1254  1  0.79116400  0.46637000  0.94604370  1
  C  1255  1  0.80594700  0.48500500  0.96122670  1
  C  1256  1  0.83318700  0.47694800  0.97004470  1
  C  1257  1  0.84350200  0.44933500  0.96439770  1
  C  1258  1  0.82778900  0.43105600  0.94996070  1
  C  1260  1  0.85113100  0.49462000  0.98465070  1
  C  1261  1  0.85057500  0.52461200  0.98407470  1
  C  1262  1  0.87014300  0.54104100  0.99661570  1
  C  1263  1  0.89288100  0.52818300  0.00838300  1
  C  1264  1  0.89368200  0.49849100  0.00956600  1
  C  1265  1  0.87291500  0.48182300  0.99836170  1
  C  1270  1  0.87532800  0.45050800  0.99895870  1
  C  1271  1  0.87087300  0.43885300  0.97401570  1
  C  1281  1  0.89328900  0.80174000  0.00482100  1
  C  1282  1  0.86612100  0.79137000  0.99972670  1
  C  1283  1  0.84749800  0.80608500  0.98449270  1
  C  1284  1  0.85554800  0.83331300  0.97564370  1
  C  1285  1  0.88315200  0.84366400  0.98127970  1
  C  1286  1  0.90142650  0.82801200  0.99575270  1
  C  1288  1  0.83786700  0.85122900  0.96103070  1
  C  1289  1  0.80787900  0.85072600  0.96167870  1
  C  1290  1  0.79144700  0.87030500  0.94915370  1
  C  1291  1  0.80429800  0.89295200  0.93725570  1
  C  1292  1  0.83399100  0.89375100  0.93608270  1
  C  1293  1  0.85066400  0.87300300  0.94730770  1
  C  1298  1  0.88197800  0.87542200  0.94669270  1
  C  1299  1  0.89363300  0.87102200  0.97163970  1
  C  1309  1  0.43912600  0.53104700  0.00488800  1
  C  1310  1  0.46628900  0.54139600  0.99974570  1
  C  1311  1  0.48491500  0.52661700  0.98455070  1
  C  1312  1  0.47684900  0.49938000  0.97573470  1
  C  1313  1  0.44924900  0.48904800  0.98140570  1
  C  1314  1  0.43098700  0.50474500  0.99586470  1
  C  1316  1  0.49449300  0.48144900  0.96110270  1
  C  1317  1  0.52448500  0.48198100  0.96166970  1
  C  1318  1  0.54088200  0.46239300  0.94912770  1
  C  1319  1  0.52798400  0.43966600  0.93736770  1
  C  1320  1  0.49829700  0.43890200  0.93618270  1
  C  1321  1  0.48166300  0.45969100  0.94738470  1
  C  1326  1  0.45035000  0.45728100  0.94681570  1
  C  1327  1  0.43875500  0.46168300  0.97178470  1
  C  1337  1  0.80147800  0.43912700  0.50481800  1
  C  1338  1  0.79112700  0.46629000  0.49967500  1
  C  1339  1  0.80591700  0.48492600  0.48449700  1
  C  1340  1  0.83316200  0.47686800  0.47569100  1
  C  1341  1  0.84349200  0.44926600  0.48135800  1
  C  1342  1  0.82779300  0.43100100  0.49581200  1
  C  1344  1  0.85109000  0.49452000  0.46105900  1
  C  1345  1  0.85058500  0.52450900  0.46164700  1
  C  1346  1  0.87015800  0.54090400  0.44908600  1
  C  1347  1  0.89282000  0.52800900  0.43724000  1
  C  1348  1  0.89361300  0.49831800  0.43610600  1
  C  1349  1  0.87285200  0.48168400  0.44734800  1
  C  1354  1  0.87527100  0.45037100  0.44677800  1
  C  1355  1  0.87086400  0.43877800  0.47174500  1
  C  1365  1  0.53079500  0.89328000  0.50482800  1
  C  1366  1  0.54116400  0.86611400  0.49973600  1
  C  1367  1  0.52646100  0.84750100  0.48448500  1
  C  1368  1  0.49924100  0.85555700  0.47562500  1
  C  1369  1  0.48888900  0.88315900  0.48126300  1
  C  1370  1  0.50453800  0.90143250  0.49573900  1
  C  1372  1  0.48132200  0.83787900  0.46101200  1
  C  1373  1  0.48185400  0.80788900  0.46163700  1
  C  1374  1  0.46225800  0.79145200  0.44913300  1
  C  1375  1  0.43954500  0.80430700  0.43732200  1
  C  1376  1  0.43877200  0.83399600  0.43609900  1
  C  1377  1  0.45955000  0.85067000  0.44728300  1
  C  1382  1  0.45713800  0.88198300  0.44666700  1
  C  1383  1  0.46153600  0.89364100  0.47161500  1
  C  1393  1  0.09012500  0.66407700  0.45895900  1
  C  1394  1  0.10442300  0.66523500  0.48053200  1
  C  1395  1  0.13436800  0.66375400  0.48185100  1
  C  1396  1  0.15046300  0.66254000  0.46069200  1
  C  1397  1  0.13568000  0.66024100  0.43899500  1
  C  1398  1  0.10596200  0.66036800  0.43845500  1
  C  1400  1  0.18094100  0.66055900  0.45999500  1
  C  1401  1  0.19870900  0.67467400  0.47626500  1
  C  1402  1  0.22833500  0.67381100  0.47427000  1
  C  1403  1  0.24084500  0.65914400  0.45558200  1
  C  1404  1  0.22374300  0.64589500  0.43874200  1
  C  1405  1  0.19406000  0.64666100  0.44065800  1
  C  1410  1  0.17645700  0.63576200  0.42102100  1
  C  1411  1  0.15156600  0.65626900  0.41670700  1
  C  1421  1  0.66409500  0.24239100  0.95899370  1
  C  1422  1  0.66527600  0.22807900  0.98055870  1
  C  1423  1  0.66375400  0.19813900  0.98186770  1
  C  1424  1  0.66250500  0.18205700  0.96070170  1
  C  1425  1  0.66024500  0.19685000  0.93900870  1
  C  1426  1  0.66038200  0.22656900  0.93848170  1
  C  1428  1  0.66054900  0.15157900  0.95999170  1
  C  1429  1  0.67462100  0.13381900  0.97629470  1
  C  1430  1  0.67378100  0.10419100  0.97430270  1
  C  1431  1  0.65927800  0.09169500  0.95551970  1
  C  1432  1  0.64599000  0.10877000  0.93869070  1
  C  1433  1  0.64667100  0.13845100  0.94064470  1
  C  1438  1  0.63576000  0.15607100  0.92102370  1
  C  1439  1  0.65626100  0.18097300  0.91671770  1
  C  1449  1  0.09026700  0.66809300  0.98760470  1
  C  1450  1  0.10434200  0.66717700  0.96589570  1
  C  1451  1  0.13430800  0.66869100  0.96437370  1
  C  1452  1  0.15060300  0.66992600  0.98543770  1
  C  1453  1  0.13596900  0.67181700  0.00724000  1
  C  1454  1  0.10630100  0.67144500  0.00799600  1
  C  1456  1  0.18108500  0.67226900  0.98609270  1
  C  1457  1  0.19912300  0.65823200  0.96996670  1
  C  1458  1  0.22874800  0.65888100  0.97242870  1
  C  1459  1  0.24095300  0.67345300  0.99133370  1
  C  1460  1  0.22356700  0.68694500  0.00780300  1
  C  1461  1  0.19395800  0.68627000  0.00550400  1
  C  1466  1  0.17618200  0.69704700  0.02506900  1
  C  1467  1  0.15187000  0.67593900  0.02948900  1
  C  1477  1  0.66444600  0.09030200  0.48757900  1
  C  1478  1  0.66538400  0.10438400  0.46587500  1
  C  1479  1  0.66382700  0.13434800  0.46436200  1
  C  1480  1  0.66255600  0.15063100  0.48543000  1
  C  1481  1  0.66070500  0.13599500  0.50722900  1
  C  1482  1  0.66108100  0.10632500  0.50797700  1
  C  1484  1  0.66024000  0.18111500  0.48610200  1
  C  1485  1  0.67422900  0.19914600  0.46993500  1
  C  1486  1  0.67361300  0.22877400  0.47239600  1
  C  1487  1  0.65923600  0.24095900  0.49141500  1
  C  1488  1  0.64568900  0.22360700  0.50786600  1
  C  1489  1  0.64626600  0.19400200  0.50552000  1
  C  1494  1  0.63547100  0.17621100  0.52506700  1
  C  1495  1  0.65656600  0.15188400  0.52948400  1
  C  1505  1  0.44257400  0.66778200  0.16024700  1
  C  1506  1  0.46861600  0.66721400  0.17209600  1
  C  1507  1  0.46992800  0.66869100  0.19686100  1
  C  1508  1  0.44418500  0.66961500  0.20993500  1
  C  1509  1  0.41798000  0.67122200  0.19762900  1
  C  1510  1  0.41753700  0.67075400  0.17309200  1
  C  1512  1  0.44315900  0.67221900  0.23500900  1
  C  1513  1  0.46256100  0.65817800  0.24997500  1
  C  1514  1  0.45983600  0.65949400  0.27443800  1
  C  1515  1  0.43740800  0.67485900  0.28430600  1
  C  1516  1  0.41734100  0.68805800  0.26986500  1
  C  1517  1  0.41978200  0.68658100  0.24539200  1
  C  1522  1  0.39598300  0.69680300  0.23055700  1
  C  1523  1  0.39093200  0.67541300  0.21056100  1
  C  1533  1  0.89085300  0.66508000  0.16024000  1
  C  1534  1  0.86469700  0.66542700  0.17196900  1
  C  1535  1  0.86320600  0.66388200  0.19675400  1
  C  1536  1  0.88886000  0.66288200  0.20995900  1
  C  1537  1  0.91515150  0.66166600  0.19773200  1
  C  1538  1  0.91579050  0.66243900  0.17321600  1
  C  1540  1  0.88988500  0.66006800  0.23505600  1
  C  1541  1  0.87056300  0.67398700  0.25019300  1
  C  1542  1  0.87378300  0.67298500  0.27465800  1
  C  1543  1  0.89666300  0.65807800  0.28434600  1
  C  1544  1  0.91632950  0.64459200  0.26975100  1
  C  1545  1  0.91338650  0.64575500  0.24531500  1
  C  1550  1  0.93703850  0.63553900  0.23032800  1
  C  1551  1  0.94217350  0.65731000  0.21065200  1
  C  1561  1  0.66754800  0.89092700  0.66009000  1
  C  1562  1  0.66722600  0.86471200  0.67171600  1
  C  1563  1  0.66869900  0.86312100  0.69648500  1
  C  1564  1  0.66958100  0.88872500  0.70975800  1
  C  1565  1  0.67093400  0.91507750  0.69764800  1
  C  1566  1  0.67019700  0.91582250  0.67313300  1
  C  1568  1  0.67227400  0.88954800  0.73483900  1
  C  1569  1  0.65825800  0.87006000  0.74974500  1
  C  1570  1  0.65949900  0.87272500  0.77421900  1
  C  1571  1  0.67476400  0.89517400  0.78416900  1
  C  1572  1  0.68798200  0.91528850  0.76979200  1
  C  1573  1  0.68659000  0.91290250  0.74530900  1
  C  1578  1  0.69677200  0.93678050  0.73054800  1
  C  1579  1  0.67521400  0.94201350  0.71071300  1
  C  1589  1  0.66484700  0.44262500  0.66041200  1
  C  1590  1  0.66543300  0.46860600  0.67236700  1
  C  1591  1  0.66388200  0.46981700  0.69714500  1
  C  1592  1  0.66283900  0.44402600  0.71015400  1
  C  1593  1  0.66137400  0.41788500  0.69772900  1
  C  1594  1  0.66189100  0.41754800  0.67319100  1
  C  1596  1  0.66011500  0.44280100  0.73524500  1
  C  1597  1  0.67405200  0.46204300  0.75044000  1
  C  1598  1  0.67298500  0.45876300  0.77489100  1
  C  1599  1  0.65800100  0.43588900  0.78450400  1
  C  1600  1  0.64454000  0.41626700  0.76985100  1
  C  1601  1  0.64577100  0.41927100  0.74541900  1
  C  1606  1  0.63551200  0.39570100  0.73035900  1
  C  1607  1  0.65710900  0.39075000  0.71051500  1
  N  384  1  0.89102500  0.92050800  0.74880900  1
  N  387  1  0.92207600  0.79776900  0.79654200  1
  N  388  1  0.80114800  0.92395700  0.70714700  1
  N  412  1  0.20276200  0.17326600  0.74879300  1
  N  415  1  0.17151100  0.29596300  0.79649800  1
  N  416  1  0.29266900  0.16959400  0.70722000  1
  N  440  1  0.92051500  0.20278100  0.24882500  1
  N  443  1  0.79778700  0.17171600  0.29655700  1
  N  444  1  0.92396800  0.29266100  0.20716800  1
  N  468  1  0.17325100  0.89104200  0.24884700  1
  N  471  1  0.29594100  0.92230500  0.29655400  1
  N  472  1  0.16958600  0.80113400  0.20727800  1
  N  496  1  0.20273300  0.17335400  0.25687800  1
  N  499  1  0.17145500  0.29603100  0.20908600  1
  N  500  1  0.29256600  0.16998400  0.29856100  1
  N  524  1  0.89095900  0.92056200  0.25693200  1
  N  527  1  0.92202100  0.79779200  0.20925900  1
  N  528  1  0.80110400  0.92416100  0.29859100  1
  N  552  1  0.17323900  0.89097300  0.75687800  1
  N  555  1  0.29598900  0.92202400  0.70917200  1
  N  556  1  0.16963100  0.80110600  0.79852800  1
  N  580  1  0.92046000  0.20273700  0.75687100  1
  N  583  1  0.79775200  0.17144200  0.70912300  1
  N  584  1  0.92381800  0.29255800  0.79856100  1
  N  608  1  0.52869500  0.04146200  0.78389600  1
  N  611  1  0.64804700  0.04309900  0.73008200  1
  N  612  1  0.44294500  0.04702000  0.73835800  1
  N  636  1  0.04145100  0.56507400  0.28391600  1
  N  639  1  0.04321900  0.44570400  0.23016300  1
  N  640  1  0.04704200  0.65082700  0.23842100  1
  N  664  1  0.52851600  0.05216300  0.22225800  1
  N  667  1  0.64788800  0.05084900  0.27773100  1
  N  668  1  0.44311800  0.04660300  0.26883400  1
  N  692  1  0.04160900  0.52854400  0.72224200  1
  N  695  1  0.04306200  0.64795500  0.77766800  1
  N  696  1  0.04719800  0.44315500  0.76879000  1
  N  720  1  0.87699800  0.05276500  0.48839200  1
  N  723  1  0.80996900  0.05226600  0.58585600  1
  N  724  1  0.82226100  0.04641200  0.41736500  1
  N  748  1  0.21731700  0.04115800  0.48820000  1
  N  751  1  0.28578800  0.04180500  0.58584800  1
  N  752  1  0.27302200  0.04742800  0.41735600  1
  N  776  1  0.05273300  0.21719900  0.98786500  1
  N  779  1  0.05213100  0.28378000  0.08574800  1
  N  780  1  0.04642000  0.27315600  0.91722700  1
  N  804  1  0.04111100  0.87685300  0.98874000  1
  N  807  1  0.04171100  0.80794700  0.08597900  1
  N  808  1  0.04742000  0.82238800  0.91750600  1
  N  1192  1  0.51039600  0.53987900  0.46881000  1
  N  1195  1  0.54144700  0.41714000  0.51654300  1
  N  1196  1  0.42051900  0.54332800  0.42714800  1
  N  1220  1  0.82213300  0.79263700  0.46879400  1
  N  1223  1  0.79088200  0.91533450  0.51649900  1
  N  1224  1  0.91204050  0.78896500  0.42722100  1
  N  1248  1  0.53988600  0.82215200  0.96882570  1
  N  1251  1  0.41715800  0.79108700  0.01655800  1
  N  1252  1  0.54333900  0.91203250  0.92716870  1
  N  1276  1  0.79262200  0.51041300  0.96884770  1
  N  1279  1  0.91531250  0.54167600  0.01655500  1
  N  1280  1  0.78895700  0.42050500  0.92727870  1
  N  1304  1  0.82210400  0.79272500  0.97687870  1
  N  1307  1  0.79082600  0.91540250  0.92908670  1
  N  1308  1  0.91193750  0.78935500  0.01856200  1
  N  1332  1  0.51033000  0.53993300  0.97693270  1
  N  1335  1  0.54139200  0.41716300  0.92925970  1
  N  1336  1  0.42047500  0.54353200  0.01859200  1
  N  1360  1  0.79261000  0.51034400  0.47687900  1
  N  1363  1  0.91536050  0.54139500  0.42917300  1
  N  1364  1  0.78900200  0.42047700  0.51852900  1
  N  1388  1  0.53983100  0.82210800  0.47687200  1
  N  1391  1  0.41712300  0.79081300  0.42912400  1
  N  1392  1  0.54318900  0.91192950  0.51856200  1
  N  1416  1  0.14806600  0.66083300  0.50389700  1
  N  1419  1  0.26741800  0.66247000  0.45008300  1
  N  1420  1  0.06231600  0.66639100  0.45835900  1
  N  1444  1  0.66082200  0.18444500  0.00391700  1
  N  1447  1  0.66259000  0.06507500  0.95016370  1
  N  1448  1  0.66641300  0.27019800  0.95842170  1
  N  1472  1  0.14788700  0.67153400  0.94225870  1
  N  1475  1  0.26725900  0.67022000  0.99773170  1
  N  1476  1  0.06248900  0.66597400  0.98883470  1
  N  1500  1  0.66098000  0.14791500  0.44224300  1
  N  1503  1  0.66243300  0.26732600  0.49766900  1
  N  1504  1  0.66656900  0.06252600  0.48879100  1
  N  1528  1  0.49636900  0.67213600  0.20839300  1
  N  1531  1  0.42934000  0.67163700  0.30585700  1
  N  1532  1  0.44163200  0.66578300  0.13736600  1
  N  1556  1  0.83668800  0.66052900  0.20820100  1
  N  1559  1  0.90515950  0.66117600  0.30584900  1
  N  1560  1  0.89239300  0.66679900  0.13735700  1
  N  1584  1  0.67210400  0.83657000  0.70786600  1
  N  1587  1  0.67150200  0.90315150  0.80574900  1
  N  1588  1  0.66579100  0.89252700  0.63722800  1
  N  1612  1  0.66048200  0.49622400  0.70874100  1
  N  1615  1  0.66108200  0.42731800  0.80598000  1
  N  1616  1  0.66679100  0.44175900  0.63750700  1
  O  385  1  0.90052000  0.94079600  0.73689300  1
  O  386  1  0.88838100  0.92908600  0.76949600  1
  O  413  1  0.19324000  0.15299100  0.73687800  1
  O  414  1  0.20542100  0.16468800  0.76947800  1
  O  441  1  0.94080100  0.19327900  0.23690900  1
  O  442  1  0.92909000  0.20543100  0.26951100  1
  O  469  1  0.15297700  0.90056400  0.23693200  1
  O  470  1  0.16467200  0.88838400  0.26953200  1
  O  497  1  0.19325900  0.15305200  0.26879200  1
  O  498  1  0.20541900  0.16476200  0.23620000  1
  O  525  1  0.90048700  0.94083200  0.26885200  1
  O  526  1  0.88831400  0.92913800  0.23624600  1
  O  553  1  0.15296900  0.90050100  0.76879600  1
  O  554  1  0.16466500  0.88832900  0.73619000  1
  O  581  1  0.94076000  0.19326400  0.76878700  1
  O  582  1  0.92905600  0.20542500  0.73619500  1
  O  609  1  0.51590700  0.05084900  0.80157700  1
  O  610  1  0.53463000  0.01597000  0.78765000  1
  O  637  1  0.05086300  0.57784700  0.30159600  1
  O  638  1  0.01595800  0.55916800  0.28767500  1
  O  665  1  0.51552600  0.04285800  0.20464600  1
  O  666  1  0.53451700  0.07762500  0.21843600  1
  O  693  1  0.05093200  0.51556400  0.70463200  1
  O  694  1  0.01614200  0.53452200  0.71841500  1
  O  721  1  0.89848200  0.04303300  0.47820000  1
  O  722  1  0.88136500  0.07841500  0.49279500  1
  O  749  1  0.19589900  0.05084200  0.47788000  1
  O  750  1  0.21286200  0.01553900  0.49267300  1
  O  777  1  0.04308600  0.19578900  0.97751600  1
  O  778  1  0.07834000  0.21279200  0.99241400  1
  O  805  1  0.05088500  0.89834500  0.97858100  1
  O  806  1  0.01544800  0.88127100  0.99306200  1
  O  1193  1  0.51989100  0.56016700  0.45689400  1
  O  1194  1  0.50775200  0.54845700  0.48949700  1
  O  1221  1  0.81261100  0.77236200  0.45687900  1
  O  1222  1  0.82479200  0.78405900  0.48947900  1
  O  1249  1  0.56017200  0.81265000  0.95690970  1
  O  1250  1  0.54846100  0.82480200  0.98951170  1
  O  1277  1  0.77234800  0.51993500  0.95693270  1
  O  1278  1  0.78404300  0.50775500  0.98953270  1
  O  1305  1  0.81263000  0.77242300  0.98879270  1
  O  1306  1  0.82479000  0.78413300  0.95620070  1
  O  1333  1  0.51985800  0.56020300  0.98885270  1
  O  1334  1  0.50768500  0.54850900  0.95624670  1
  O  1361  1  0.77234000  0.51987200  0.48879700  1
  O  1362  1  0.78403600  0.50770000  0.45619100  1
  O  1389  1  0.56013100  0.81263500  0.48878800  1
  O  1390  1  0.54842700  0.82479600  0.45619600  1
  O  1417  1  0.13527800  0.67022000  0.52157800  1
  O  1418  1  0.15400100  0.63534100  0.50765100  1
  O  1445  1  0.67023400  0.19721800  0.02159700  1
  O  1446  1  0.63532900  0.17853900  0.00767600  1
  O  1473  1  0.13489700  0.66222900  0.92464670  1
  O  1474  1  0.15388800  0.69699600  0.93843670  1
  O  1501  1  0.67030300  0.13493500  0.42463300  1
  O  1502  1  0.63551300  0.15389300  0.43841600  1
  O  1529  1  0.51785300  0.66240400  0.19820100  1
  O  1530  1  0.50073600  0.69778600  0.21279600  1
  O  1557  1  0.81527000  0.67021300  0.19788100  1
  O  1558  1  0.83223300  0.63491000  0.21267400  1
  O  1585  1  0.66245700  0.81516000  0.69751700  1
  O  1586  1  0.69771100  0.83216300  0.71241500  1
  O  1613  1  0.67025600  0.51771600  0.69858200  1
  O  1614  1  0.63481900  0.50064200  0.71306300  1
