# generated using pymatgen
data_H18(C4N)7
_symmetry_space_group_name_H-M   'P 1'
_cell_length_a   43.16720000
_cell_length_b   43.16720000
_cell_length_c   70.09030000
_cell_angle_alpha   90.00000000
_cell_angle_beta   90.00000000
_cell_angle_gamma   90.00000000
_symmetry_Int_Tables_number   1
_chemical_formula_structural   H18(C4N)7
_chemical_formula_sum   'H576 C896 N224'
_cell_volume   130606.76657497
_cell_formula_units_Z   32
loop_
 _symmetry_equiv_pos_site_id
 _symmetry_equiv_pos_as_xyz
  1  'x, y, z'
loop_
 _atom_site_type_symbol
 _atom_site_label
 _atom_site_symmetry_multiplicity
 _atom_site_fract_x
 _atom_site_fract_y
 _atom_site_fract_z
 _atom_site_occupancy
  H  49  1  0.01667300  0.07963800  0.21038400  1
  H  50  1  0.00453200  0.11840500  0.18686200  1
  H  51  1  0.11131300  0.08577900  0.19557600  1
  H  52  1  0.09928500  0.12445200  0.17225600  1
  H  53  1  0.04441700  0.08766200  0.14636600  1
  H  54  1  0.04112200  0.08674200  0.11029100  1
  H  55  1  0.04008400  0.17709900  0.12752000  1
  H  56  1  0.03986400  0.23078600  0.12690800  1
  H  57  1  0.04359000  0.17640800  0.20035000  1
  H  58  1  0.03990800  0.23519300  0.19976200  1
  H  59  1  0.98658100  0.29047500  0.17166900  1
  H  60  1  0.97948800  0.33108700  0.19453600  1
  H  61  1  0.08229800  0.28841800  0.18424800  1
  H  62  1  0.07510800  0.32900900  0.20732800  1
  H  63  1  0.04083800  0.32116100  0.14413600  1
  H  64  1  0.04330400  0.32027100  0.10805700  1
  H  65  1  0.03956300  0.17268700  0.05466700  1
  H  66  1  0.04274200  0.23151100  0.05406000  1
  H  67  1  0.09788700  0.28449900  0.08270200  1
  H  68  1  0.10963700  0.32408700  0.05994800  1
  H  69  1  0.00335900  0.28900000  0.06728400  1
  H  70  1  0.01530400  0.32869000  0.04421500  1
  H  71  1  0.98655600  0.11793900  0.08173600  1
  H  72  1  0.98020100  0.07767600  0.05853300  1
  H  73  1  0.07644000  0.07888700  0.04761700  1
  H  74  1  0.08285700  0.11916300  0.07097400  1
  H  127  1  0.58267900  0.33064500  0.71034700  1
  H  128  1  0.59473000  0.29119800  0.68713700  1
  H  129  1  0.48846400  0.32641200  0.69430900  1
  H  130  1  0.50031600  0.28707000  0.67141600  1
  H  131  1  0.55513700  0.32271300  0.64618800  1
  H  132  1  0.55774600  0.32360700  0.61010700  1
  H  133  1  0.55841800  0.23323100  0.62733500  1
  H  134  1  0.55801700  0.17953900  0.62672300  1
  H  135  1  0.55533200  0.23395300  0.70018600  1
  H  136  1  0.55836900  0.17512900  0.69958600  1
  H  137  1  0.61132400  0.11963500  0.67138100  1
  H  138  1  0.61840100  0.07907700  0.69428600  1
  H  139  1  0.51569800  0.12211800  0.68418300  1
  H  140  1  0.52287000  0.08156800  0.70729500  1
  H  141  1  0.55619400  0.08919600  0.64396200  1
  H  142  1  0.55316100  0.09011600  0.60788700  1
  H  143  1  0.55845500  0.23763700  0.55448500  1
  H  144  1  0.55473200  0.17884200  0.55389300  1
  H  145  1  0.49888200  0.12713900  0.58167700  1
  H  146  1  0.48711300  0.08813900  0.55850800  1
  H  147  1  0.59386600  0.12048300  0.56774900  1
  H  148  1  0.58199100  0.08139400  0.54438600  1
  H  149  1  0.61162000  0.29233100  0.58150400  1
  H  150  1  0.61794400  0.33270400  0.55837100  1
  H  151  1  0.52166700  0.33165000  0.54757100  1
  H  152  1  0.51527800  0.29127200  0.57086100  1
  H  205  1  0.08189000  0.58046000  0.54378200  1
  H  206  1  0.09426800  0.61914000  0.56731100  1
  H  207  1  0.98733900  0.58690200  0.55874800  1
  H  208  1  0.99960200  0.62549200  0.58207100  1
  H  209  1  0.05429100  0.58846800  0.60786700  1
  H  210  1  0.05753000  0.58747400  0.64394500  1
  H  211  1  0.05909300  0.67785100  0.62678000  1
  H  212  1  0.05890200  0.73158400  0.62749600  1
  H  213  1  0.05556800  0.67737600  0.55396300  1
  H  214  1  0.05911900  0.73616600  0.55463900  1
  H  215  1  0.11203900  0.79150400  0.58281800  1
  H  216  1  0.11906400  0.83210500  0.55993200  1
  H  217  1  0.01635400  0.78916900  0.57017200  1
  H  218  1  0.02347000  0.82975600  0.54708600  1
  H  219  1  0.05696200  0.82196000  0.61034000  1
  H  220  1  0.05402400  0.82096700  0.64641600  1
  H  221  1  0.05961800  0.67328500  0.69963500  1
  H  222  1  0.05593700  0.73208000  0.70031500  1
  H  223  1  0.99977900  0.78382300  0.67258100  1
  H  224  1  0.98792500  0.82280400  0.69573800  1
  H  225  1  0.09473200  0.79061300  0.68655300  1
  H  226  1  0.08276600  0.82969100  0.70991300  1
  H  227  1  0.11234000  0.61851600  0.67244600  1
  H  228  1  0.11871500  0.57825900  0.69565000  1
  H  229  1  0.02252300  0.57964700  0.70670900  1
  H  230  1  0.01608500  0.61991600  0.68335400  1
  H  283  1  0.51666800  0.83073100  0.04373700  1
  H  284  1  0.50441800  0.79190500  0.06720000  1
  H  285  1  0.61127000  0.82439300  0.05861100  1
  H  286  1  0.59913100  0.78566700  0.08187700  1
  H  287  1  0.54407300  0.82254400  0.10770100  1
  H  288  1  0.54087400  0.82345900  0.14377700  1
  H  289  1  0.54006100  0.73309900  0.12654100  1
  H  290  1  0.53955800  0.67938700  0.12709300  1
  H  291  1  0.54386700  0.73381500  0.05370700  1
  H  292  1  0.54017500  0.67502200  0.05425400  1
  H  293  1  0.48636500  0.62043700  0.08123400  1
  H  294  1  0.47992700  0.58000300  0.05816000  1
  H  295  1  0.58271100  0.62116000  0.07061300  1
  H  296  1  0.57620700  0.58071000  0.04737300  1
  H  297  1  0.54014700  0.58901500  0.10984900  1
  H  298  1  0.54259100  0.58989500  0.14593500  1
  H  299  1  0.53967200  0.73745900  0.19938300  1
  H  300  1  0.54268600  0.67862500  0.19994800  1
  H  301  1  0.59748400  0.62568200  0.17122800  1
  H  302  1  0.60933100  0.58621200  0.19404400  1
  H  303  1  0.50301200  0.62121300  0.18677800  1
  H  304  1  0.51505100  0.58164100  0.20989900  1
  H  305  1  0.48648300  0.79229700  0.17234800  1
  H  306  1  0.48013600  0.83252900  0.19556800  1
  H  307  1  0.57635900  0.83124800  0.20651100  1
  H  308  1  0.58277200  0.79100200  0.18313100  1
  H  361  1  0.66968700  0.41655000  0.29742200  1
  H  362  1  0.71052200  0.40657800  0.32013700  1
  H  363  1  0.67784400  0.51246400  0.30792400  1
  H  364  1  0.71855300  0.50270400  0.33045200  1
  H  365  1  0.68177800  0.45017600  0.35839200  1
  H  366  1  0.68122400  0.44756500  0.39444100  1
  H  367  1  0.77134600  0.44374500  0.37684300  1
  H  368  1  0.82502300  0.44685600  0.37724800  1
  H  369  1  0.76985800  0.44674000  0.30402800  1
  H  370  1  0.82874300  0.44366100  0.30441000  1
  H  371  1  0.88521200  0.39217300  0.33174500  1
  H  372  1  0.92560400  0.38643000  0.30854200  1
  H  373  1  0.88144300  0.48818600  0.32028100  1
  H  374  1  0.92173100  0.48240400  0.29695800  1
  H  375  1  0.91527000  0.44601700  0.35976900  1
  H  376  1  0.91467700  0.44995500  0.39579000  1
  H  377  1  0.76766000  0.44578300  0.44970700  1
  H  378  1  0.82633700  0.45056000  0.45008200  1
  H  379  1  0.88183500  0.50517800  0.41996700  1
  H  380  1  0.92145000  0.51663600  0.44283300  1
  H  381  1  0.88143600  0.41174100  0.43787200  1
  H  382  1  0.92092700  0.42336600  0.46098000  1
  H  383  1  0.70975900  0.39294700  0.42195400  1
  H  384  1  0.66882100  0.38789400  0.44484600  1
  H  385  1  0.67511700  0.48349500  0.45714900  1
  H  386  1  0.71594700  0.48861000  0.43411400  1
  H  439  1  0.92258800  0.98736600  0.79282200  1
  H  440  1  0.88322900  0.99905100  0.81599800  1
  H  441  1  0.92297500  0.89406900  0.81092000  1
  H  442  1  0.88349600  0.90559400  0.83386500  1
  H  443  1  0.91650000  0.96055000  0.85805800  1
  H  444  1  0.91716500  0.96432800  0.89407100  1
  H  445  1  0.82689500  0.96443200  0.87664700  1
  H  446  1  0.77326400  0.96421400  0.87710900  1
  H  447  1  0.82800000  0.95984100  0.80382800  1
  H  448  1  0.76930500  0.96449500  0.80428000  1
  H  449  1  0.71345000  0.01853000  0.83140800  1
  H  450  1  0.67314600  0.02435700  0.80815300  1
  H  451  1  0.71640800  0.92236100  0.82035600  1
  H  452  1  0.67623900  0.92823100  0.79696600  1
  H  453  1  0.68299600  0.96513000  0.85968300  1
  H  454  1  0.68362800  0.96137200  0.89571200  1
  H  455  1  0.83081000  0.96489800  0.94949100  1
  H  456  1  0.77210300  0.96042200  0.94993500  1
  H  457  1  0.71657500  0.90593400  0.91987500  1
  H  458  1  0.67702200  0.89444600  0.94277700  1
  H  459  1  0.71688300  0.99939400  0.93773800  1
  H  460  1  0.67744300  0.98774600  0.96087200  1
  H  461  1  0.88836500  0.01777400  0.92182100  1
  H  462  1  0.92914400  0.02290800  0.94482600  1
  H  463  1  0.92324100  0.92721600  0.95692300  1
  H  464  1  0.88259500  0.92202000  0.93378000  1
  H  517  1  0.17008200  0.49429200  0.95696300  1
  H  518  1  0.21096200  0.50433500  0.93429200  1
  H  519  1  0.17879000  0.39835800  0.94670000  1
  H  520  1  0.21955900  0.40819000  0.92422900  1
  H  521  1  0.18247500  0.45996500  0.89618800  1
  H  522  1  0.18183800  0.46266200  0.86014200  1
  H  523  1  0.27192700  0.46757800  0.87772200  1
  H  524  1  0.32573800  0.46752000  0.87730600  1
  H  525  1  0.27051800  0.46468900  0.95052800  1
  H  526  1  0.32939600  0.46788300  0.95017600  1
  H  527  1  0.38778300  0.51822500  0.92205200  1
  H  528  1  0.42882400  0.52340300  0.94486100  1
  H  529  1  0.38092400  0.42284700  0.93489100  1
  H  530  1  0.42188800  0.42808700  0.95783500  1
  H  531  1  0.41585100  0.46286600  0.89486600  1
  H  532  1  0.41521600  0.46040300  0.85881400  1
  H  533  1  0.26828500  0.46836500  0.80485300  1
  H  534  1  0.32716500  0.46528700  0.80449200  1
  H  535  1  0.37825700  0.40868600  0.83062000  1
  H  536  1  0.41899700  0.39913000  0.80808600  1
  H  537  1  0.38658800  0.50493000  0.82082900  1
  H  538  1  0.42744100  0.49516300  0.79809500  1
  H  539  1  0.20966900  0.51819000  0.83294000  1
  H  540  1  0.16885500  0.52321500  0.80996300  1
  H  541  1  0.17633300  0.42793200  0.79699800  1
  H  542  1  0.21706600  0.42285200  0.82010100  1
  H  595  1  0.42239100  0.92323200  0.46148300  1
  H  596  1  0.38310800  0.91149200  0.43827000  1
  H  597  1  0.42308300  0.01641500  0.44315600  1
  H  598  1  0.38368300  0.00483400  0.42017100  1
  H  599  1  0.41656700  0.94958300  0.39611800  1
  H  600  1  0.41724500  0.94578400  0.36010300  1
  H  601  1  0.32696200  0.94619200  0.37749500  1
  H  602  1  0.27333000  0.94656700  0.37703400  1
  H  603  1  0.32802500  0.95092700  0.45031500  1
  H  604  1  0.26932300  0.94639500  0.44985700  1
  H  605  1  0.21349600  0.89225700  0.42294000  1
  H  606  1  0.17323800  0.88667900  0.44624700  1
  H  607  1  0.21646300  0.98854500  0.43359200  1
  H  608  1  0.17633900  0.98292500  0.45703500  1
  H  609  1  0.18305200  0.94520700  0.39442600  1
  H  610  1  0.18370400  0.94883900  0.35839200  1
  H  611  1  0.33094100  0.94585600  0.30466000  1
  H  612  1  0.27223500  0.95037300  0.30420800  1
  H  613  1  0.21649100  0.00447400  0.33430000  1
  H  614  1  0.17687700  0.01588200  0.31142400  1
  H  615  1  0.21711400  0.91106500  0.31634300  1
  H  616  1  0.17760900  0.92262700  0.29324000  1
  H  617  1  0.38836900  0.89258800  0.33227900  1
  H  618  1  0.42920600  0.88745200  0.30931400  1
  H  619  1  0.42352100  0.98319200  0.29732900  1
  H  620  1  0.38281600  0.98838800  0.32043800  1
  H  631  1  0.95946100  0.97179400  0.01775700  1
  H  633  1  0.06719800  0.03943000  0.99249600  1
  H  634  1  0.05535200  0.02324700  0.97224800  1
  H  636  1  0.06061500  0.03719000  0.02639600  1
  H  638  1  0.95433400  0.94470000  0.98341500  1
  H  645  1  0.63858500  0.43881300  0.51781200  1
  H  647  1  0.53097800  0.37110400  0.49241400  1
  H  648  1  0.54282700  0.38736600  0.47219100  1
  H  650  1  0.53749200  0.37323500  0.52628800  1
  H  652  1  0.64390400  0.46593300  0.48357900  1
  H  659  1  0.13940500  0.47247300  0.73650200  1
  H  661  1  0.03188600  0.54033200  0.76187300  1
  H  662  1  0.04374900  0.52412100  0.78210800  1
  H  664  1  0.03835700  0.53812000  0.72801000  1
  H  666  1  0.14481200  0.44546100  0.77073500  1
  H  673  1  0.45928200  0.93819000  0.23646900  1
  H  675  1  0.56732900  0.87095100  0.26161700  1
  H  676  1  0.55561400  0.88729000  0.28184700  1
  H  678  1  0.56053300  0.87293400  0.22775100  1
  H  680  1  0.45423700  0.96550700  0.27064500  1
  H  687  1  0.05026400  0.89086500  0.49020900  1
  H  689  1  0.16612000  0.94725500  0.51182000  1
  H  690  1  0.15688900  0.92835400  0.53172300  1
  H  692  1  0.13812500  0.96800000  0.48014200  1
  H  694  1  0.04124700  0.86711500  0.52344900  1
  H  701  1  0.55919600  0.52694500  0.26707400  1
  H  703  1  0.67122600  0.47552800  0.23524500  1
  H  704  1  0.65447400  0.49060200  0.21601100  1
  H  706  1  0.67302600  0.49148700  0.26803400  1
  H  708  1  0.53880500  0.54458300  0.23346900  1
  H  715  1  0.53828900  0.38520700  0.76758300  1
  H  717  1  0.42586300  0.43581500  0.73579500  1
  H  718  1  0.44273900  0.42095000  0.71654000  1
  H  720  1  0.42430600  0.41949500  0.76862200  1
  H  722  1  0.55881600  0.36768700  0.73399300  1
  H  729  1  0.95229800  0.48439800  0.51968000  1
  H  731  1  0.06504500  0.53653100  0.48925500  1
  H  732  1  0.05131200  0.51747900  0.47046900  1
  H  734  1  0.05986100  0.54109900  0.52263000  1
  H  736  1  0.94390500  0.45089800  0.48856700  1
  H  743  1  0.64603500  0.92709400  0.01967000  1
  H  745  1  0.53339900  0.87466000  0.98929000  1
  H  746  1  0.54716400  0.89356400  0.97045600  1
  H  748  1  0.53854400  0.87035100  0.02271800  1
  H  750  1  0.65433800  0.96044500  0.98840800  1
  H  757  1  0.14571900  0.98295100  0.23454500  1
  H  759  1  0.03343800  0.03602400  0.26500300  1
  H  760  1  0.04719400  0.01714600  0.28385000  1
  H  762  1  0.03847900  0.04018600  0.23156600  1
  H  764  1  0.15402300  0.94970800  0.26585600  1
  H  771  1  0.05961800  0.38365300  0.98708700  1
  H  773  1  0.17161000  0.43477500  0.01914200  1
  H  774  1  0.15475400  0.41969900  0.03834200  1
  H  776  1  0.17340100  0.41866300  0.98629500  1
  H  778  1  0.03904300  0.36593300  0.02065800  1
  H  785  1  0.55015400  0.02082500  0.76431000  1
  H  787  1  0.66556800  0.96393600  0.74231000  1
  H  788  1  0.65617700  0.98276800  0.72241100  1
  H  790  1  0.63773500  0.94332800  0.77409500  1
  H  792  1  0.54086700  0.04458300  0.73113800  1
  H  799  1  0.45347900  0.98410000  0.52017900  1
  H  801  1  0.56590200  0.03723400  0.48996500  1
  H  802  1  0.55242700  0.01809900  0.47113800  1
  H  804  1  0.56050700  0.04156600  0.52342800  1
  H  806  1  0.44558600  0.95053300  0.48893900  1
  H  813  1  0.95377400  0.92647300  0.73407200  1
  H  815  1  0.06651400  0.87408600  0.76433300  1
  H  816  1  0.05290400  0.89315800  0.78314600  1
  H  818  1  0.06112100  0.86952200  0.73090000  1
  H  820  1  0.94582800  0.96016500  0.76532400  1
  H  827  1  0.04801700  0.38997500  0.26429300  1
  H  829  1  0.93224100  0.44631200  0.24246000  1
  H  830  1  0.94154200  0.42734600  0.22259700  1
  H  832  1  0.95965100  0.46717500  0.27376800  1
  H  834  1  0.05714400  0.36606300  0.23112300  1
  H  841  1  0.45887400  0.47367500  0.01807200  1
  H  843  1  0.56674100  0.54052000  0.99224300  1
  H  844  1  0.55486600  0.52390300  0.97213500  1
  H  846  1  0.56021100  0.53903500  0.02613800  1
  H  848  1  0.45350700  0.44588800  0.98407800  1
  H  897  1  0.20199900  0.26496400  0.21038400  1
  H  898  1  0.18985800  0.30373100  0.18686200  1
  H  899  1  0.29663900  0.27110500  0.19557600  1
  H  900  1  0.28461100  0.30977800  0.17225600  1
  H  901  1  0.22974300  0.27298800  0.14636600  1
  H  902  1  0.22644800  0.27206800  0.11029100  1
  H  903  1  0.22541000  0.36242500  0.12752000  1
  H  904  1  0.22519000  0.41611200  0.12690800  1
  H  905  1  0.22891600  0.36173400  0.20035000  1
  H  906  1  0.22523400  0.42051900  0.19976200  1
  H  907  1  0.17190700  0.47580100  0.17166900  1
  H  908  1  0.16481400  0.51641300  0.19453600  1
  H  909  1  0.26762400  0.47374400  0.18424800  1
  H  910  1  0.26043400  0.51433500  0.20732800  1
  H  911  1  0.22616400  0.50648700  0.14413600  1
  H  912  1  0.22863000  0.50559700  0.10805700  1
  H  913  1  0.22488900  0.35801300  0.05466700  1
  H  914  1  0.22806800  0.41683700  0.05406000  1
  H  915  1  0.28321300  0.46982500  0.08270200  1
  H  916  1  0.29496300  0.50941300  0.05994800  1
  H  917  1  0.18868500  0.47432600  0.06728400  1
  H  918  1  0.20063000  0.51401600  0.04421500  1
  H  919  1  0.17188200  0.30326500  0.08173600  1
  H  920  1  0.16552700  0.26300200  0.05853300  1
  H  921  1  0.26176600  0.26421300  0.04761700  1
  H  922  1  0.26818300  0.30448900  0.07097400  1
  H  975  1  0.76800500  0.51597100  0.71034700  1
  H  976  1  0.78005600  0.47652400  0.68713700  1
  H  977  1  0.67379000  0.51173800  0.69430900  1
  H  978  1  0.68564200  0.47239600  0.67141600  1
  H  979  1  0.74046300  0.50803900  0.64618800  1
  H  980  1  0.74307200  0.50893300  0.61010700  1
  H  981  1  0.74374400  0.41855700  0.62733500  1
  H  982  1  0.74334300  0.36486500  0.62672300  1
  H  983  1  0.74065800  0.41927900  0.70018600  1
  H  984  1  0.74369500  0.36045500  0.69958600  1
  H  985  1  0.79665000  0.30496100  0.67138100  1
  H  986  1  0.80372700  0.26440300  0.69428600  1
  H  987  1  0.70102400  0.30744400  0.68418300  1
  H  988  1  0.70819600  0.26689400  0.70729500  1
  H  989  1  0.74152000  0.27452200  0.64396200  1
  H  990  1  0.73848700  0.27544200  0.60788700  1
  H  991  1  0.74378100  0.42296300  0.55448500  1
  H  992  1  0.74005800  0.36416800  0.55389300  1
  H  993  1  0.68420800  0.31246500  0.58167700  1
  H  994  1  0.67243900  0.27346500  0.55850800  1
  H  995  1  0.77919200  0.30580900  0.56774900  1
  H  996  1  0.76731700  0.26672000  0.54438600  1
  H  997  1  0.79694600  0.47765700  0.58150400  1
  H  998  1  0.80327000  0.51803000  0.55837100  1
  H  999  1  0.70699300  0.51697600  0.54757100  1
  H  1000  1  0.70060400  0.47659800  0.57086100  1
  H  1053  1  0.26721600  0.76578600  0.54378200  1
  H  1054  1  0.27959400  0.80446600  0.56731100  1
  H  1055  1  0.17266500  0.77222800  0.55874800  1
  H  1056  1  0.18492800  0.81081800  0.58207100  1
  H  1057  1  0.23961700  0.77379400  0.60786700  1
  H  1058  1  0.24285600  0.77280000  0.64394500  1
  H  1059  1  0.24441900  0.86317700  0.62678000  1
  H  1060  1  0.24422800  0.91691000  0.62749600  1
  H  1061  1  0.24089400  0.86270200  0.55396300  1
  H  1062  1  0.24444500  0.92149200  0.55463900  1
  H  1063  1  0.29736500  0.97683000  0.58281800  1
  H  1064  1  0.30439000  0.01743090  0.55993200  1
  H  1065  1  0.20168000  0.97449500  0.57017200  1
  H  1066  1  0.20879600  0.01508190  0.54708600  1
  H  1067  1  0.24228800  0.00728590  0.61034000  1
  H  1068  1  0.23935000  0.00629290  0.64641600  1
  H  1069  1  0.24494400  0.85861100  0.69963500  1
  H  1070  1  0.24126300  0.91740600  0.70031500  1
  H  1071  1  0.18510500  0.96914900  0.67258100  1
  H  1072  1  0.17325100  0.00812990  0.69573800  1
  H  1073  1  0.28005800  0.97593900  0.68655300  1
  H  1074  1  0.26809200  0.01501690  0.70991300  1
  H  1075  1  0.29766600  0.80384200  0.67244600  1
  H  1076  1  0.30404100  0.76358500  0.69565000  1
  H  1077  1  0.20784900  0.76497300  0.70670900  1
  H  1078  1  0.20141100  0.80524200  0.68335400  1
  H  1131  1  0.70199400  0.01605690  0.04373700  1
  H  1132  1  0.68974400  0.97723100  0.06720000  1
  H  1133  1  0.79659600  0.00971890  0.05861100  1
  H  1134  1  0.78445700  0.97099300  0.08187700  1
  H  1135  1  0.72939900  0.00786990  0.10770100  1
  H  1136  1  0.72620000  0.00878490  0.14377700  1
  H  1137  1  0.72538700  0.91842500  0.12654100  1
  H  1138  1  0.72488400  0.86471300  0.12709300  1
  H  1139  1  0.72919300  0.91914100  0.05370700  1
  H  1140  1  0.72550100  0.86034800  0.05425400  1
  H  1141  1  0.67169100  0.80576300  0.08123400  1
  H  1142  1  0.66525300  0.76532900  0.05816000  1
  H  1143  1  0.76803700  0.80648600  0.07061300  1
  H  1144  1  0.76153300  0.76603600  0.04737300  1
  H  1145  1  0.72547300  0.77434100  0.10984900  1
  H  1146  1  0.72791700  0.77522100  0.14593500  1
  H  1147  1  0.72499800  0.92278500  0.19938300  1
  H  1148  1  0.72801200  0.86395100  0.19994800  1
  H  1149  1  0.78281000  0.81100800  0.17122800  1
  H  1150  1  0.79465700  0.77153800  0.19404400  1
  H  1151  1  0.68833800  0.80653900  0.18677800  1
  H  1152  1  0.70037700  0.76696700  0.20989900  1
  H  1153  1  0.67180900  0.97762300  0.17234800  1
  H  1154  1  0.66546200  0.01785490  0.19556800  1
  H  1155  1  0.76168500  0.01657390  0.20651100  1
  H  1156  1  0.76809800  0.97632800  0.18313100  1
  H  1209  1  0.85501300  0.60187600  0.29742200  1
  H  1210  1  0.89584800  0.59190400  0.32013700  1
  H  1211  1  0.86317000  0.69779000  0.30792400  1
  H  1212  1  0.90387900  0.68803000  0.33045200  1
  H  1213  1  0.86710400  0.63550200  0.35839200  1
  H  1214  1  0.86655000  0.63289100  0.39444100  1
  H  1215  1  0.95667200  0.62907100  0.37684300  1
  H  1216  1  0.01034890  0.63218200  0.37724800  1
  H  1217  1  0.95518400  0.63206600  0.30402800  1
  H  1218  1  0.01406890  0.62898700  0.30441000  1
  H  1219  1  0.07053790  0.57749900  0.33174500  1
  H  1220  1  0.11093000  0.57175600  0.30854200  1
  H  1221  1  0.06676890  0.67351200  0.32028100  1
  H  1222  1  0.10705700  0.66773000  0.29695800  1
  H  1223  1  0.10059600  0.63134300  0.35976900  1
  H  1224  1  0.10000300  0.63528100  0.39579000  1
  H  1225  1  0.95298600  0.63110900  0.44970700  1
  H  1226  1  0.01166290  0.63588600  0.45008200  1
  H  1227  1  0.06716090  0.69050400  0.41996700  1
  H  1228  1  0.10677600  0.70196200  0.44283300  1
  H  1229  1  0.06676190  0.59706700  0.43787200  1
  H  1230  1  0.10625300  0.60869200  0.46098000  1
  H  1231  1  0.89508500  0.57827300  0.42195400  1
  H  1232  1  0.85414700  0.57322000  0.44484600  1
  H  1233  1  0.86044300  0.66882100  0.45714900  1
  H  1234  1  0.90127300  0.67393600  0.43411400  1
  H  1287  1  0.10791400  0.17269200  0.79282200  1
  H  1288  1  0.06855490  0.18437700  0.81599800  1
  H  1289  1  0.10830100  0.07939490  0.81092000  1
  H  1290  1  0.06882190  0.09091990  0.83386500  1
  H  1291  1  0.10182600  0.14587600  0.85805800  1
  H  1292  1  0.10249100  0.14965400  0.89407100  1
  H  1293  1  0.01222090  0.14975800  0.87664700  1
  H  1294  1  0.95859000  0.14954000  0.87710900  1
  H  1295  1  0.01332590  0.14516700  0.80382800  1
  H  1296  1  0.95463100  0.14982100  0.80428000  1
  H  1297  1  0.89877600  0.20385600  0.83140800  1
  H  1298  1  0.85847200  0.20968300  0.80815300  1
  H  1299  1  0.90173400  0.10768700  0.82035600  1
  H  1300  1  0.86156500  0.11355700  0.79696600  1
  H  1301  1  0.86832200  0.15045600  0.85968300  1
  H  1302  1  0.86895400  0.14669800  0.89571200  1
  H  1303  1  0.01613590  0.15022400  0.94949100  1
  H  1304  1  0.95742900  0.14574800  0.94993500  1
  H  1305  1  0.90190100  0.09125990  0.91987500  1
  H  1306  1  0.86234800  0.07977190  0.94277700  1
  H  1307  1  0.90220900  0.18472000  0.93773800  1
  H  1308  1  0.86276900  0.17307200  0.96087200  1
  H  1309  1  0.07369090  0.20310000  0.92182100  1
  H  1310  1  0.11447000  0.20823400  0.94482600  1
  H  1311  1  0.10856700  0.11254200  0.95692300  1
  H  1312  1  0.06792090  0.10734600  0.93378000  1
  H  1365  1  0.35540800  0.67961800  0.95696300  1
  H  1366  1  0.39628800  0.68966100  0.93429200  1
  H  1367  1  0.36411600  0.58368400  0.94670000  1
  H  1368  1  0.40488500  0.59351600  0.92422900  1
  H  1369  1  0.36780100  0.64529100  0.89618800  1
  H  1370  1  0.36716400  0.64798800  0.86014200  1
  H  1371  1  0.45725300  0.65290400  0.87772200  1
  H  1372  1  0.51106400  0.65284600  0.87730600  1
  H  1373  1  0.45584400  0.65001500  0.95052800  1
  H  1374  1  0.51472200  0.65320900  0.95017600  1
  H  1375  1  0.57310900  0.70355100  0.92205200  1
  H  1376  1  0.61415000  0.70872900  0.94486100  1
  H  1377  1  0.56625000  0.60817300  0.93489100  1
  H  1378  1  0.60721400  0.61341300  0.95783500  1
  H  1379  1  0.60117700  0.64819200  0.89486600  1
  H  1380  1  0.60054200  0.64572900  0.85881400  1
  H  1381  1  0.45361100  0.65369100  0.80485300  1
  H  1382  1  0.51249100  0.65061300  0.80449200  1
  H  1383  1  0.56358300  0.59401200  0.83062000  1
  H  1384  1  0.60432300  0.58445600  0.80808600  1
  H  1385  1  0.57191400  0.69025600  0.82082900  1
  H  1386  1  0.61276700  0.68048900  0.79809500  1
  H  1387  1  0.39499500  0.70351600  0.83294000  1
  H  1388  1  0.35418100  0.70854100  0.80996300  1
  H  1389  1  0.36165900  0.61325800  0.79699800  1
  H  1390  1  0.40239200  0.60817800  0.82010100  1
  H  1443  1  0.60771700  0.10855800  0.46148300  1
  H  1444  1  0.56843400  0.09681790  0.43827000  1
  H  1445  1  0.60840900  0.20174100  0.44315600  1
  H  1446  1  0.56900900  0.19016000  0.42017100  1
  H  1447  1  0.60189300  0.13490900  0.39611800  1
  H  1448  1  0.60257100  0.13111000  0.36010300  1
  H  1449  1  0.51228800  0.13151800  0.37749500  1
  H  1450  1  0.45865600  0.13189300  0.37703400  1
  H  1451  1  0.51335100  0.13625300  0.45031500  1
  H  1452  1  0.45464900  0.13172100  0.44985700  1
  H  1453  1  0.39882200  0.07758290  0.42294000  1
  H  1454  1  0.35856400  0.07200490  0.44624700  1
  H  1455  1  0.40178900  0.17387100  0.43359200  1
  H  1456  1  0.36166500  0.16825100  0.45703500  1
  H  1457  1  0.36837800  0.13053300  0.39442600  1
  H  1458  1  0.36903000  0.13416500  0.35839200  1
  H  1459  1  0.51626700  0.13118200  0.30466000  1
  H  1460  1  0.45756100  0.13569900  0.30420800  1
  H  1461  1  0.40181700  0.18980000  0.33430000  1
  H  1462  1  0.36220300  0.20120800  0.31142400  1
  H  1463  1  0.40244000  0.09639090  0.31634300  1
  H  1464  1  0.36293500  0.10795300  0.29324000  1
  H  1465  1  0.57369500  0.07791390  0.33227900  1
  H  1466  1  0.61453200  0.07277790  0.30931400  1
  H  1467  1  0.60884700  0.16851800  0.29732900  1
  H  1468  1  0.56814200  0.17371400  0.32043800  1
  H  1479  1  0.14478700  0.15712000  0.01775700  1
  H  1481  1  0.25252400  0.22475600  0.99249600  1
  H  1482  1  0.24067800  0.20857300  0.97224800  1
  H  1484  1  0.24594100  0.22251600  0.02639600  1
  H  1486  1  0.13966000  0.13002600  0.98341500  1
  H  1493  1  0.82391100  0.62413900  0.51781200  1
  H  1495  1  0.71630400  0.55643000  0.49241400  1
  H  1496  1  0.72815300  0.57269200  0.47219100  1
  H  1498  1  0.72281800  0.55856100  0.52628800  1
  H  1500  1  0.82923000  0.65125900  0.48357900  1
  H  1507  1  0.32473100  0.65779900  0.73650200  1
  H  1509  1  0.21721200  0.72565800  0.76187300  1
  H  1510  1  0.22907500  0.70944700  0.78210800  1
  H  1512  1  0.22368300  0.72344600  0.72801000  1
  H  1514  1  0.33013800  0.63078700  0.77073500  1
  H  1521  1  0.64460800  0.12351600  0.23646900  1
  H  1523  1  0.75265500  0.05627690  0.26161700  1
  H  1524  1  0.74094000  0.07261590  0.28184700  1
  H  1526  1  0.74585900  0.05825990  0.22775100  1
  H  1528  1  0.63956300  0.15083300  0.27064500  1
  H  1535  1  0.23559000  0.07619090  0.49020900  1
  H  1537  1  0.35144600  0.13258100  0.51182000  1
  H  1538  1  0.34221500  0.11368000  0.53172300  1
  H  1540  1  0.32345100  0.15332600  0.48014200  1
  H  1542  1  0.22657300  0.05244090  0.52344900  1
  H  1549  1  0.74452200  0.71227100  0.26707400  1
  H  1551  1  0.85655200  0.66085400  0.23524500  1
  H  1552  1  0.83980000  0.67592800  0.21601100  1
  H  1554  1  0.85835200  0.67681300  0.26803400  1
  H  1556  1  0.72413100  0.72990900  0.23346900  1
  H  1563  1  0.72361500  0.57053300  0.76758300  1
  H  1565  1  0.61118900  0.62114100  0.73579500  1
  H  1566  1  0.62806500  0.60627600  0.71654000  1
  H  1568  1  0.60963200  0.60482100  0.76862200  1
  H  1570  1  0.74414200  0.55301300  0.73399300  1
  H  1577  1  0.13762400  0.66972400  0.51968000  1
  H  1579  1  0.25037100  0.72185700  0.48925500  1
  H  1580  1  0.23663800  0.70280500  0.47046900  1
  H  1582  1  0.24518700  0.72642500  0.52263000  1
  H  1584  1  0.12923100  0.63622400  0.48856700  1
  H  1591  1  0.83136100  0.11242000  0.01967000  1
  H  1593  1  0.71872500  0.05998590  0.98929000  1
  H  1594  1  0.73249000  0.07888990  0.97045600  1
  H  1596  1  0.72387000  0.05567690  0.02271800  1
  H  1598  1  0.83966400  0.14577100  0.98840800  1
  H  1605  1  0.33104500  0.16827700  0.23454500  1
  H  1607  1  0.21876400  0.22135000  0.26500300  1
  H  1608  1  0.23252000  0.20247200  0.28385000  1
  H  1610  1  0.22380500  0.22551200  0.23156600  1
  H  1612  1  0.33934900  0.13503400  0.26585600  1
  H  1619  1  0.24494400  0.56897900  0.98708700  1
  H  1621  1  0.35693600  0.62010100  0.01914200  1
  H  1622  1  0.34008000  0.60502500  0.03834200  1
  H  1624  1  0.35872700  0.60398900  0.98629500  1
  H  1626  1  0.22436900  0.55125900  0.02065800  1
  H  1633  1  0.73548000  0.20615100  0.76431000  1
  H  1635  1  0.85089400  0.14926200  0.74231000  1
  H  1636  1  0.84150300  0.16809400  0.72241100  1
  H  1638  1  0.82306100  0.12865400  0.77409500  1
  H  1640  1  0.72619300  0.22990900  0.73113800  1
  H  1647  1  0.63880500  0.16942600  0.52017900  1
  H  1649  1  0.75122800  0.22256000  0.48996500  1
  H  1650  1  0.73775300  0.20342500  0.47113800  1
  H  1652  1  0.74583300  0.22689200  0.52342800  1
  H  1654  1  0.63091200  0.13585900  0.48893900  1
  H  1661  1  0.13910000  0.11179900  0.73407200  1
  H  1663  1  0.25184000  0.05941190  0.76433300  1
  H  1664  1  0.23823000  0.07848390  0.78314600  1
  H  1666  1  0.24644700  0.05484790  0.73090000  1
  H  1668  1  0.13115400  0.14549100  0.76532400  1
  H  1675  1  0.23334300  0.57530100  0.26429300  1
  H  1677  1  0.11756700  0.63163800  0.24246000  1
  H  1678  1  0.12686800  0.61267200  0.22259700  1
  H  1680  1  0.14497700  0.65250100  0.27376800  1
  H  1682  1  0.24247000  0.55138900  0.23112300  1
  H  1689  1  0.64420000  0.65900100  0.01807200  1
  H  1691  1  0.75206700  0.72584600  0.99224300  1
  H  1692  1  0.74019200  0.70922900  0.97213500  1
  H  1694  1  0.74553700  0.72436100  0.02613800  1
  H  1696  1  0.63883300  0.63121400  0.98407800  1
  C  1  1  0.04315600  0.10699400  0.13798100  1
  C  2  1  0.04106700  0.10649000  0.11833600  1
  C  3  1  0.03980800  0.13707200  0.11182300  1
  C  5  1  0.04289300  0.13788500  0.14394700  1
  C  6  1  0.04444600  0.14779000  0.16328700  1
  C  7  1  0.04279000  0.17909400  0.16937000  1
  C  9  1  0.03993000  0.23085200  0.16884100  1
  C  10  1  0.04040600  0.22142600  0.18790600  1
  C  11  1  0.04273400  0.18953500  0.18822900  1
  C  12  1  0.03872000  0.26184000  0.16212700  1
  C  13  1  0.03971500  0.27081500  0.14260500  1
  C  15  1  0.04214100  0.27002200  0.11047400  1
  C  16  1  0.04238500  0.30091900  0.11644200  1
  C  17  1  0.04071700  0.30140700  0.13609400  1
  C  18  1  0.04336200  0.26014200  0.09112100  1
  C  19  1  0.04183300  0.22883600  0.08503700  1
  C  21  1  0.03938100  0.17705600  0.08558500  1
  C  22  1  0.03977900  0.18647800  0.06651600  1
  C  23  1  0.04187000  0.21838700  0.06618200  1
  C  24  1  0.03851200  0.14605300  0.09230600  1
  C  25  1  0.03528800  0.12219700  0.07844100  1
  C  26  1  0.06118300  0.11047500  0.06843600  1
  C  27  1  0.05741600  0.08682300  0.05478800  1
  C  28  1  0.02771200  0.07442800  0.05101100  1
  C  29  1  0.00196800  0.08618600  0.06106700  1
  C  30  1  0.00565200  0.10981500  0.07465700  1
  C  31  1  0.04955500  0.28303700  0.07700000  1
  C  32  1  0.08029400  0.29353600  0.07463100  1
  C  33  1  0.08715000  0.31682600  0.06131600  1
  C  34  1  0.06356400  0.33000100  0.05001700  1
  C  35  1  0.03277700  0.31943500  0.05224000  1
  C  36  1  0.02580700  0.29617900  0.06570500  1
  C  37  1  0.03506800  0.28568000  0.17596000  1
  C  38  1  0.00538700  0.29842600  0.17910900  1
  C  39  1  0.00127300  0.32228700  0.19248700  1
  C  40  1  0.02659700  0.33378200  0.20304100  1
  C  41  1  0.05635600  0.32106400  0.19989400  1
  C  42  1  0.06057700  0.29726800  0.18639200  1
  C  43  1  0.05079600  0.12497400  0.17744100  1
  C  44  1  0.02707100  0.11165900  0.18866200  1
  C  45  1  0.08168200  0.11519200  0.18022200  1
  C  46  1  0.08871400  0.09249100  0.19390600  1
  C  47  1  0.06515300  0.07907800  0.20512800  1
  C  48  1  0.03420000  0.08892700  0.20242500  1
  C  79  1  0.55610100  0.30336500  0.63780300  1
  C  80  1  0.55785000  0.30385600  0.61815100  1
  C  81  1  0.55871600  0.27326300  0.61163700  1
  C  83  1  0.55619400  0.27246600  0.64376800  1
  C  84  1  0.55482000  0.26258200  0.66311800  1
  C  85  1  0.55618900  0.23127000  0.66920700  1
  C  87  1  0.55845200  0.17948300  0.66866600  1
  C  88  1  0.55814000  0.18891100  0.68773300  1
  C  89  1  0.55617700  0.22082800  0.68806400  1
  C  90  1  0.55926500  0.14848400  0.66194200  1
  C  91  1  0.55791700  0.13951800  0.64242400  1
  C  93  1  0.55500100  0.14033500  0.61030000  1
  C  94  1  0.55447700  0.10944800  0.61626900  1
  C  95  1  0.55648600  0.10894000  0.63591400  1
  C  96  1  0.55371500  0.15024100  0.59095400  1
  C  97  1  0.55548200  0.18153700  0.58487100  1
  C  99  1  0.55841300  0.23328800  0.58540500  1
  C  100  1  0.55789400  0.22386600  0.56634000  1
  C  101  1  0.55559800  0.19197300  0.56601300  1
  C  102  1  0.55964300  0.26428200  0.59211500  1
  C  103  1  0.56287700  0.28812200  0.57824400  1
  C  104  1  0.53695900  0.29992700  0.56830000  1
  C  105  1  0.54071000  0.32364000  0.55469000  1
  C  106  1  0.57041500  0.33601900  0.55090400  1
  C  107  1  0.59618000  0.32419100  0.56090500  1
  C  108  1  0.59251500  0.30049500  0.57445300  1
  C  109  1  0.54745600  0.12742200  0.57679000  1
  C  110  1  0.51657800  0.11772500  0.57386000  1
  C  111  1  0.50970200  0.09482100  0.56027300  1
  C  112  1  0.53341500  0.08111700  0.54930600  1
  C  113  1  0.56435300  0.09090500  0.55214900  1
  C  114  1  0.57132600  0.11383900  0.56581200  1
  C  115  1  0.56287900  0.12462100  0.67576600  1
  C  116  1  0.59252900  0.11177500  0.67886900  1
  C  117  1  0.59663600  0.08795000  0.69227300  1
  C  118  1  0.57133500  0.07659100  0.70290300  1
  C  119  1  0.54160600  0.08941300  0.69980500  1
  C  120  1  0.53739500  0.11317700  0.68627900  1
  C  121  1  0.54860700  0.28547400  0.67723800  1
  C  122  1  0.57229200  0.29844000  0.68866000  1
  C  123  1  0.51787100  0.29601000  0.67955900  1
  C  124  1  0.51095300  0.31915200  0.69295900  1
  C  125  1  0.53447300  0.33213400  0.70439400  1
  C  126  1  0.56525800  0.32154300  0.70221200  1
  C  157  1  0.05565900  0.60777900  0.61626500  1
  C  158  1  0.05781100  0.60723000  0.63590700  1
  C  159  1  0.05910800  0.63779700  0.64244400  1
  C  161  1  0.05604300  0.63867800  0.61032000  1
  C  162  1  0.05456100  0.64862500  0.59098500  1
  C  163  1  0.05622800  0.67995200  0.58494700  1
  C  165  1  0.05896800  0.73172300  0.58555500  1
  C  166  1  0.05863100  0.72235500  0.56647700  1
  C  167  1  0.05638500  0.69045800  0.56610300  1
  C  168  1  0.05996400  0.76270000  0.59231200  1
  C  169  1  0.05869700  0.77163500  0.61183700  1
  C  171  1  0.05587900  0.77075500  0.64396200  1
  C  172  1  0.05532600  0.80165300  0.63801900  1
  C  173  1  0.05729300  0.80220200  0.61837200  1
  C  174  1  0.05463400  0.76081000  0.66330200  1
  C  175  1  0.05645800  0.72949200  0.66933400  1
  C  177  1  0.05933200  0.67772800  0.66871900  1
  C  178  1  0.05900600  0.68709600  0.68779900  1
  C  179  1  0.05675300  0.71899300  0.68817700  1
  C  180  1  0.06038000  0.64674400  0.66196800  1
  C  181  1  0.06362900  0.62286000  0.67581400  1
  C  182  1  0.03775500  0.61119100  0.68586100  1
  C  183  1  0.04153400  0.58754600  0.69951100  1
  C  184  1  0.07123300  0.57510800  0.70325300  1
  C  185  1  0.09695600  0.58680500  0.69314700  1
  C  186  1  0.09325800  0.61042700  0.67955200  1
  C  187  1  0.04834500  0.78358600  0.67749300  1
  C  188  1  0.01745400  0.79325600  0.68040700  1
  C  189  1  0.01052500  0.81615100  0.69399100  1
  C  190  1  0.03419800  0.82989500  0.70497100  1
  C  191  1  0.06515400  0.82014700  0.70214300  1
  C  192  1  0.07217700  0.79721500  0.68848500  1
  C  193  1  0.06357100  0.78659100  0.57850800  1
  C  194  1  0.09322200  0.79941100  0.57537100  1
  C  195  1  0.09729700  0.82325800  0.56198000  1
  C  196  1  0.07195900  0.83467800  0.55140500  1
  C  197  1  0.04222900  0.82188400  0.55454200  1
  C  198  1  0.03805000  0.79809000  0.56804900  1
  C  199  1  0.04807100  0.62586900  0.57681000  1
  C  200  1  0.07169600  0.61248200  0.56554100  1
  C  201  1  0.01714000  0.61619100  0.57407000  1
  C  202  1  0.00997000  0.59353200  0.56038300  1
  C  203  1  0.03343100  0.58005400  0.54911000  1
  C  204  1  0.06442900  0.58979300  0.55177600  1
  C  235  1  0.54283600  0.80321000  0.11608500  1
  C  236  1  0.54069300  0.80371500  0.13572800  1
  C  237  1  0.53957700  0.77313200  0.14224400  1
  C  239  1  0.54262300  0.77231900  0.11011700  1
  C  240  1  0.54422400  0.76240600  0.09078000  1
  C  241  1  0.54259100  0.73110700  0.08468100  1
  C  243  1  0.53969700  0.67934300  0.08517300  1
  C  244  1  0.54046200  0.68878500  0.06611600  1
  C  245  1  0.54276000  0.72068000  0.06581800  1
  C  246  1  0.53839500  0.64833800  0.09185900  1
  C  247  1  0.53919700  0.63935600  0.11138300  1
  C  249  1  0.54159000  0.64014600  0.14352100  1
  C  250  1  0.54167600  0.60925000  0.13755000  1
  C  251  1  0.53996800  0.60876100  0.11789700  1
  C  252  1  0.54291700  0.65003100  0.16287000  1
  C  253  1  0.54160600  0.68134200  0.16897400  1
  C  255  1  0.53932700  0.73313600  0.16846400  1
  C  256  1  0.53987100  0.72368700  0.18752500  1
  C  257  1  0.54178200  0.69176700  0.18783500  1
  C  258  1  0.53841900  0.76415300  0.16176600  1
  C  259  1  0.53521000  0.78800200  0.17564600  1
  C  260  1  0.56110000  0.79970100  0.18566600  1
  C  261  1  0.55733600  0.82333400  0.19932900  1
  C  262  1  0.52764000  0.83574900  0.20310700  1
  C  263  1  0.50190000  0.82401300  0.19303700  1
  C  264  1  0.50558100  0.80040000  0.17943300  1
  C  265  1  0.54916700  0.62712700  0.17697700  1
  C  266  1  0.57992000  0.61665600  0.17932700  1
  C  267  1  0.58683500  0.59344200  0.19268300  1
  C  268  1  0.56329400  0.58031600  0.20404000  1
  C  269  1  0.53249500  0.59085700  0.20183300  1
  C  270  1  0.52546700  0.61403400  0.18832900  1
  C  271  1  0.53512000  0.62450500  0.07797600  1
  C  272  1  0.50544900  0.61220600  0.07418900  1
  C  273  1  0.50171500  0.58847000  0.06067600  1
  C  274  1  0.52744300  0.57651700  0.05069200  1
  C  275  1  0.55718500  0.58882300  0.05447200  1
  C  276  1  0.56100300  0.61257900  0.06804900  1
  C  277  1  0.55065500  0.78523300  0.07664800  1
  C  278  1  0.52697200  0.79862100  0.06542500  1
  C  279  1  0.58156200  0.79497900  0.07390800  1
  C  280  1  0.58865800  0.81771200  0.06025600  1
  C  281  1  0.56513800  0.83120100  0.04903400  1
  C  282  1  0.53416500  0.82139100  0.05170000  1
  C  313  1  0.70119700  0.44856600  0.36667900  1
  C  314  1  0.70088200  0.44685100  0.38632300  1
  C  315  1  0.73151000  0.44503000  0.39270500  1
  C  317  1  0.73201000  0.44753900  0.36058200  1
  C  318  1  0.74170300  0.44853100  0.34119600  1
  C  319  1  0.77293500  0.44692800  0.33498500  1
  C  321  1  0.82472600  0.44455800  0.33534000  1
  C  322  1  0.81508700  0.44441400  0.31631100  1
  C  323  1  0.78315800  0.44638100  0.31608800  1
  C  324  1  0.85578900  0.44376100  0.34196500  1
  C  325  1  0.86492600  0.44542200  0.36144400  1
  C  327  1  0.86440200  0.44920300  0.39354000  1
  C  328  1  0.89524800  0.44895000  0.38747700  1
  C  329  1  0.89557200  0.44645000  0.36785700  1
  C  330  1  0.85469800  0.45115300  0.41290900  1
  C  331  1  0.82346600  0.44907100  0.41911500  1
  C  333  1  0.77172100  0.44531300  0.41877800  1
  C  334  1  0.78132100  0.44614500  0.43780300  1
  C  335  1  0.81316200  0.44915600  0.43800200  1
  C  336  1  0.74065600  0.44389100  0.41219100  1
  C  337  1  0.71680900  0.44117800  0.42612000  1
  C  338  1  0.70621500  0.46729500  0.43636700  1
  C  339  1  0.68224500  0.46427400  0.44985600  1
  C  340  1  0.66822100  0.43514300  0.45318400  1
  C  341  1  0.67853200  0.40925300  0.44267600  1
  C  342  1  0.70264300  0.41215100  0.42932500  1
  C  343  1  0.87778100  0.45745000  0.42693800  1
  C  344  1  0.88983400  0.48776700  0.42858200  1
  C  345  1  0.91315700  0.49445500  0.44195000  1
  C  346  1  0.92464000  0.47119600  0.45418100  1
  C  347  1  0.91269100  0.44078400  0.45249900  1
  C  348  1  0.88958600  0.43393900  0.43894000  1
  C  349  1  0.87958800  0.44068500  0.32804700  1
  C  350  1  0.89282200  0.41132900  0.32451600  1
  C  351  1  0.91657600  0.40801900  0.31095900  1
  C  352  1  0.92758900  0.43385300  0.30066800  1
  C  353  1  0.91438000  0.46328000  0.30426000  1
  C  354  1  0.89067200  0.46668800  0.31789000  1
  C  355  1  0.71855300  0.45377300  0.32709700  1
  C  356  1  0.70396600  0.42895100  0.31748200  1
  C  357  1  0.70866600  0.48439400  0.32343700  1
  C  358  1  0.68475900  0.49011800  0.31031300  1
  C  359  1  0.67043100  0.46537900  0.30051700  1
  C  360  1  0.67998500  0.43473600  0.30430900  1
  C  391  1  0.89708900  0.96181900  0.86637100  1
  C  392  1  0.89745300  0.96427000  0.88599300  1
  C  393  1  0.86681900  0.96536300  0.89243000  1
  C  395  1  0.86623500  0.96169900  0.86032900  1
  C  396  1  0.85649600  0.95968100  0.84097000  1
  C  397  1  0.82524500  0.96164300  0.83479100  1
  C  399  1  0.77349500  0.96525200  0.83520000  1
  C  400  1  0.78301900  0.96427500  0.81616200  1
  C  401  1  0.81487400  0.96140400  0.81591900  1
  C  402  1  0.74246700  0.96683500  0.84184100  1
  C  403  1  0.73334500  0.96562500  0.86133300  1
  C  405  1  0.73390000  0.96198800  0.89343100  1
  C  406  1  0.70304600  0.96237700  0.88739000  1
  C  407  1  0.70270100  0.96483300  0.86776700  1
  C  408  1  0.74363900  0.95998900  0.91279000  1
  C  409  1  0.77490200  0.96181900  0.91896600  1
  C  411  1  0.82667500  0.96524300  0.91856200  1
  C  412  1  0.81712600  0.96440200  0.93759900  1
  C  413  1  0.78525900  0.96165200  0.93784000  1
  C  414  1  0.85771700  0.96669300  0.91192700  1
  C  415  1  0.88157500  0.96947800  0.92584700  1
  C  416  1  0.89222500  0.94336500  0.93608100  1
  C  417  1  0.91608100  0.94643700  0.94964400  1
  C  418  1  0.92993600  0.97561700  0.95306900  1
  C  419  1  0.91955100  0.00151400  0.94258900  1
  C  420  1  0.89554900  0.99856200  0.92916000  1
  C  421  1  0.72057800  0.95367400  0.92682600  1
  C  422  1  0.70856400  0.92334500  0.92848400  1
  C  423  1  0.68526600  0.91664400  0.94186800  1
  C  424  1  0.67377800  0.93990000  0.95409800  1
  C  425  1  0.68567900  0.97032800  0.95239200  1
  C  426  1  0.70875600  0.97718700  0.93881800  1
  C  427  1  0.71866900  0.96992900  0.82791900  1
  C  428  1  0.70567800  0.99935500  0.82426300  1
  C  429  1  0.68197400  0.00271800  0.81067600  1
  C  430  1  0.67077400  0.97686500  0.80047800  1
  C  431  1  0.68371200  0.94736400  0.80421000  1
  C  432  1  0.70735300  0.94390500  0.81787900  1
  C  433  1  0.87953700  0.95334000  0.82692500  1
  C  434  1  0.89134000  0.97684000  0.81491600  1
  C  435  1  0.89151100  0.92299800  0.82525000  1
  C  436  1  0.91476500  0.91627500  0.81184200  1
  C  437  1  0.92624100  0.93952200  0.79960000  1
  C  438  1  0.91437100  0.96996000  0.80131500  1
  C  469  1  0.20186500  0.46178900  0.88789500  1
  C  470  1  0.20149500  0.46357900  0.86825200  1
  C  471  1  0.23208600  0.46581500  0.86185800  1
  C  473  1  0.23267200  0.46319200  0.89397800  1
  C  474  1  0.24241100  0.46242300  0.91336300  1
  C  475  1  0.27363900  0.46421600  0.91957300  1
  C  477  1  0.32543300  0.46670000  0.91925000  1
  C  478  1  0.31576100  0.46700100  0.93827000  1
  C  479  1  0.28383400  0.46500400  0.93847300  1
  C  480  1  0.35651200  0.46733400  0.91265400  1
  C  481  1  0.36558800  0.46583300  0.89316400  1
  C  483  1  0.36500700  0.46342600  0.86103700  1
  C  484  1  0.39581900  0.46206900  0.86711500  1
  C  485  1  0.39618300  0.46371600  0.88676200  1
  C  486  1  0.35527200  0.46276800  0.84165000  1
  C  487  1  0.32404300  0.46454500  0.83544700  1
  C  489  1  0.27224600  0.46690800  0.83577600  1
  C  490  1  0.28191600  0.46736500  0.81675800  1
  C  491  1  0.31385000  0.46547200  0.81654800  1
  C  492  1  0.24116500  0.46744300  0.84237400  1
  C  493  1  0.21727800  0.47011900  0.82846700  1
  C  494  1  0.20707800  0.44408300  0.81799100  1
  C  495  1  0.18316000  0.44708500  0.80446200  1
  C  496  1  0.16883500  0.47611700  0.80129200  1
  C  497  1  0.17878000  0.50192100  0.81201600  1
  C  498  1  0.20280600  0.49903900  0.82542700  1
  C  499  1  0.37839400  0.45766000  0.82751700  1
  C  500  1  0.38820300  0.42706500  0.82370600  1
  C  501  1  0.41212300  0.42146200  0.81057200  1
  C  502  1  0.42654000  0.44629300  0.80091300  1
  C  503  1  0.41706700  0.47690900  0.80486600  1
  C  504  1  0.39307000  0.48257500  0.81804800  1
  C  505  1  0.38040300  0.47012400  0.92655200  1
  C  506  1  0.39477900  0.49910400  0.92955000  1
  C  507  1  0.41894800  0.50207600  0.94285500  1
  C  508  1  0.42912900  0.47630700  0.95352300  1
  C  509  1  0.41486900  0.44722200  0.95041900  1
  C  510  1  0.39081600  0.44412900  0.93698700  1
  C  511  1  0.21929900  0.45713700  0.92747800  1
  C  512  1  0.20453200  0.48194500  0.93700300  1
  C  513  1  0.20956400  0.42648900  0.93119800  1
  C  514  1  0.18561800  0.42072500  0.94428800  1
  C  515  1  0.17111200  0.44544700  0.95400100  1
  C  516  1  0.18052400  0.47611700  0.95015000  1
  C  547  1  0.39715800  0.94835800  0.38779700  1
  C  548  1  0.39753100  0.94583700  0.36817900  1
  C  549  1  0.36689900  0.94489900  0.36172900  1
  C  551  1  0.36629900  0.94862600  0.39382800  1
  C  552  1  0.35654900  0.95077400  0.41317900  1
  C  553  1  0.32528700  0.94895700  0.41935200  1
  C  555  1  0.27353200  0.94546900  0.41893700  1
  C  556  1  0.28303900  0.94659900  0.43797500  1
  C  557  1  0.31489900  0.94938100  0.43822100  1
  C  558  1  0.24251100  0.94384500  0.41229100  1
  C  559  1  0.23340000  0.94490800  0.39279300  1
  C  561  1  0.23397600  0.94842000  0.36069200  1
  C  562  1  0.20311700  0.94790300  0.36672100  1
  C  563  1  0.20276100  0.94548000  0.38634600  1
  C  564  1  0.24372700  0.95048400  0.34133800  1
  C  565  1  0.27499800  0.94868200  0.33517100  1
  C  567  1  0.32677200  0.94521600  0.33558400  1
  C  568  1  0.31723900  0.94619200  0.31654600  1
  C  569  1  0.28537400  0.94895300  0.31630100  1
  C  570  1  0.35781100  0.94370100  0.34222400  1
  C  571  1  0.38167400  0.94090700  0.32830700  1
  C  572  1  0.39240200  0.96702900  0.31811300  1
  C  573  1  0.41628600  0.96395700  0.30457000  1
  C  574  1  0.43010500  0.93476400  0.30112400  1
  C  575  1  0.41964100  0.90885500  0.31156400  1
  C  576  1  0.39560200  0.91180700  0.32496700  1
  C  577  1  0.22065900  0.95676700  0.32730100  1
  C  578  1  0.20853600  0.98705800  0.32567600  1
  C  579  1  0.18521200  0.99371400  0.31230000  1
  C  580  1  0.17377800  0.97044600  0.30006000  1
  C  581  1  0.18580100  0.94006000  0.30172500  1
  C  582  1  0.20891500  0.93324600  0.31528600  1
  C  583  1  0.21870900  0.94089300  0.42622000  1
  C  584  1  0.20573400  0.91150800  0.43001000  1
  C  585  1  0.18206600  0.90829000  0.44363400  1
  C  586  1  0.17089000  0.93425200  0.45373500  1
  C  587  1  0.18380000  0.96371600  0.44986400  1
  C  588  1  0.20741000  0.96702900  0.43616200  1
  C  589  1  0.37958700  0.95713700  0.42721800  1
  C  590  1  0.39127700  0.93368700  0.43930600  1
  C  591  1  0.39162600  0.98746100  0.42883600  1
  C  592  1  0.41482500  0.99421900  0.44227400  1
  C  593  1  0.42618500  0.97102500  0.45459400  1
  C  594  1  0.41425500  0.94060400  0.45293300  1
  C  625  1  0.02216400  0.01553500  0.01491300  1
  C  627  1  0.97831300  0.98189700  0.01148500  1
  C  628  1  0.98392600  0.97946200  0.99176200  1
  C  630  1  0.02871200  0.01227000  0.99514100  1
  C  635  1  0.03771300  0.03543000  0.02698900  1
  C  637  1  0.96313000  0.96516200  0.97983600  1
  C  639  1  0.57593300  0.39501800  0.51488600  1
  C  641  1  0.61975400  0.42870800  0.51151700  1
  C  642  1  0.61415200  0.43121000  0.49179700  1
  C  644  1  0.56941700  0.39831700  0.49511100  1
  C  649  1  0.56038000  0.37510000  0.52694300  1
  C  651  1  0.63493200  0.44559600  0.47990100  1
  C  653  1  0.07677700  0.51629300  0.73940400  1
  C  655  1  0.12055300  0.48254500  0.74279200  1
  C  656  1  0.11498600  0.48011000  0.76252100  1
  C  658  1  0.07028700  0.51306100  0.75918500  1
  C  663  1  0.06123800  0.53619900  0.72732600  1
  C  665  1  0.13582300  0.46579200  0.77441600  1
  C  667  1  0.52211900  0.89463400  0.23924600  1
  C  669  1  0.47826200  0.92826600  0.24270300  1
  C  670  1  0.48400500  0.93085300  0.26240600  1
  C  672  1  0.52881200  0.89806900  0.25898900  1
  C  677  1  0.53763100  0.87469300  0.22717100  1
  C  679  1  0.46328300  0.94521900  0.27436000  1
  C  681  1  0.11567500  0.93040200  0.49159600  1
  C  683  1  0.06993900  0.90000400  0.49606000  1
  C  684  1  0.07924000  0.89269500  0.51481300  1
  C  686  1  0.12505300  0.92391800  0.51057300  1
  C  691  1  0.13433000  0.94543400  0.47876500  1
  C  693  1  0.06337400  0.87180400  0.52608200  1
  C  695  1  0.62727100  0.49335900  0.26049300  1
  C  697  1  0.57756900  0.51829700  0.25957000  1
  C  698  1  0.58068400  0.52336100  0.23980100  1
  C  700  1  0.62995300  0.49700300  0.24041900  1
  C  705  1  0.65187500  0.48460500  0.27186800  1
  C  707  1  0.56078500  0.54209500  0.22955700  1
  C  709  1  0.47003300  0.41837800  0.76099600  1
  C  711  1  0.51992100  0.39383200  0.76006400  1
  C  712  1  0.51684700  0.38878200  0.74029000  1
  C  714  1  0.46738100  0.41477400  0.74092300  1
  C  719  1  0.44534500  0.42680400  0.77238700  1
  C  721  1  0.53685500  0.37016600  0.73004100  1
  C  723  1  0.01865800  0.52144500  0.51351500  1
  C  725  1  0.97172000  0.49161900  0.51261000  1
  C  726  1  0.97667500  0.48466000  0.49323100  1
  C  728  1  0.02433200  0.51376800  0.49409300  1
  C  733  1  0.03706000  0.54088600  0.52440100  1
  C  735  1  0.95508500  0.46862200  0.48267700  1
  C  737  1  0.57973200  0.88994300  0.01353300  1
  C  739  1  0.62666600  0.91975500  0.01259100  1
  C  740  1  0.62174800  0.92657000  0.99318900  1
  C  742  1  0.57409800  0.89747400  0.99408500  1
  C  747  1  0.56135700  0.87052100  0.02443600  1
  C  749  1  0.64339000  0.94249200  0.98261700  1
  C  751  1  0.07961600  0.02044100  0.24072000  1
  C  753  1  0.12641600  0.99041500  0.24164100  1
  C  754  1  0.12154700  0.98371300  0.26106300  1
  C  756  1  0.07403000  0.01303100  0.26019000  1
  C  761  1  0.06128200  0.03988800  0.22980600  1
  C  763  1  0.14315400  0.96772600  0.27162400  1
  C  765  1  0.12765100  0.41719700  0.99383800  1
  C  767  1  0.07790500  0.39235200  0.99464900  1
  C  768  1  0.08094100  0.38720600  0.01441700  1
  C  770  1  0.13024800  0.41350000  0.01390900  1
  C  775  1  0.15233100  0.42584200  0.98250100  1
  C  777  1  0.06101500  0.36840000  0.02459000  1
  C  779  1  0.61538000  0.98100500  0.76270200  1
  C  781  1  0.56968300  0.01152000  0.75837300  1
  C  782  1  0.57879900  0.01872000  0.73956800  1
  C  784  1  0.62456700  0.98737300  0.74367700  1
  C  789  1  0.63409500  0.96592200  0.77547800  1
  C  791  1  0.56287000  0.03960600  0.72832400  1
  C  793  1  0.51952500  0.02173000  0.51411700  1
  C  795  1  0.47284300  0.99153800  0.51313500  1
  C  796  1  0.47795100  0.98463700  0.49376300  1
  C  798  1  0.52536000  0.01411500  0.49470600  1
  C  803  1  0.53766800  0.04138000  0.52500600  1
  C  805  1  0.45649300  0.96852300  0.48316400  1
  C  807  1  0.02003700  0.88923200  0.74016500  1
  C  809  1  0.97317500  0.91915700  0.74112600  1
  C  810  1  0.97822500  0.92610900  0.76049600  1
  C  812  1  0.02580800  0.89690900  0.75957600  1
  C  817  1  0.03828700  0.86965400  0.72928800  1
  C  819  1  0.95665500  0.94210700  0.77107700  1
  C  821  1  0.98265400  0.42958100  0.26276000  1
  C  823  1  0.02839000  0.39913400  0.25839400  1
  C  824  1  0.01914700  0.39176300  0.23963800  1
  C  826  1  0.97332600  0.42301400  0.24378400  1
  C  831  1  0.96403800  0.44479000  0.27554300  1
  C  833  1  0.03506700  0.37085600  0.22840800  1
  C  835  1  0.52170900  0.51715900  0.01487200  1
  C  837  1  0.47781000  0.48349900  0.01172700  1
  C  838  1  0.48340200  0.48062000  0.99202300  1
  C  840  1  0.52824000  0.51344600  0.99512700  1
  C  845  1  0.53731600  0.53725800  0.02679900  1
  C  847  1  0.46256500  0.46609700  0.98021600  1
  C  849  1  0.22848200  0.29232000  0.13798100  1
  C  850  1  0.22639300  0.29181600  0.11833600  1
  C  851  1  0.22513400  0.32239800  0.11182300  1
  C  853  1  0.22821900  0.32321100  0.14394700  1
  C  854  1  0.22977200  0.33311600  0.16328700  1
  C  855  1  0.22811600  0.36442000  0.16937000  1
  C  857  1  0.22525600  0.41617800  0.16884100  1
  C  858  1  0.22573200  0.40675200  0.18790600  1
  C  859  1  0.22806000  0.37486100  0.18822900  1
  C  860  1  0.22404600  0.44716600  0.16212700  1
  C  861  1  0.22504100  0.45614100  0.14260500  1
  C  863  1  0.22746700  0.45534800  0.11047400  1
  C  864  1  0.22771100  0.48624500  0.11644200  1
  C  865  1  0.22604300  0.48673300  0.13609400  1
  C  866  1  0.22868800  0.44546800  0.09112100  1
  C  867  1  0.22715900  0.41416200  0.08503700  1
  C  869  1  0.22470700  0.36238200  0.08558500  1
  C  870  1  0.22510500  0.37180400  0.06651600  1
  C  871  1  0.22719600  0.40371300  0.06618200  1
  C  872  1  0.22383800  0.33137900  0.09230600  1
  C  873  1  0.22061400  0.30752300  0.07844100  1
  C  874  1  0.24650900  0.29580100  0.06843600  1
  C  875  1  0.24274200  0.27214900  0.05478800  1
  C  876  1  0.21303800  0.25975400  0.05101100  1
  C  877  1  0.18729400  0.27151200  0.06106700  1
  C  878  1  0.19097800  0.29514100  0.07465700  1
  C  879  1  0.23488100  0.46836300  0.07700000  1
  C  880  1  0.26562000  0.47886200  0.07463100  1
  C  881  1  0.27247600  0.50215200  0.06131600  1
  C  882  1  0.24889000  0.51532700  0.05001700  1
  C  883  1  0.21810300  0.50476100  0.05224000  1
  C  884  1  0.21113300  0.48150500  0.06570500  1
  C  885  1  0.22039400  0.47100600  0.17596000  1
  C  886  1  0.19071300  0.48375200  0.17910900  1
  C  887  1  0.18659900  0.50761300  0.19248700  1
  C  888  1  0.21192300  0.51910800  0.20304100  1
  C  889  1  0.24168200  0.50639000  0.19989400  1
  C  890  1  0.24590300  0.48259400  0.18639200  1
  C  891  1  0.23612200  0.31030000  0.17744100  1
  C  892  1  0.21239700  0.29698500  0.18866200  1
  C  893  1  0.26700800  0.30051800  0.18022200  1
  C  894  1  0.27404000  0.27781700  0.19390600  1
  C  895  1  0.25047900  0.26440400  0.20512800  1
  C  896  1  0.21952600  0.27425300  0.20242500  1
  C  927  1  0.74142700  0.48869100  0.63780300  1
  C  928  1  0.74317600  0.48918200  0.61815100  1
  C  929  1  0.74404200  0.45858900  0.61163700  1
  C  931  1  0.74152000  0.45779200  0.64376800  1
  C  932  1  0.74014600  0.44790800  0.66311800  1
  C  933  1  0.74151500  0.41659600  0.66920700  1
  C  935  1  0.74377800  0.36480900  0.66866600  1
  C  936  1  0.74346600  0.37423700  0.68773300  1
  C  937  1  0.74150300  0.40615400  0.68806400  1
  C  938  1  0.74459100  0.33381000  0.66194200  1
  C  939  1  0.74324300  0.32484400  0.64242400  1
  C  941  1  0.74032700  0.32566100  0.61030000  1
  C  942  1  0.73980300  0.29477400  0.61626900  1
  C  943  1  0.74181200  0.29426600  0.63591400  1
  C  944  1  0.73904100  0.33556700  0.59095400  1
  C  945  1  0.74080800  0.36686300  0.58487100  1
  C  947  1  0.74373900  0.41861400  0.58540500  1
  C  948  1  0.74322000  0.40919200  0.56634000  1
  C  949  1  0.74092400  0.37729900  0.56601300  1
  C  950  1  0.74496900  0.44960800  0.59211500  1
  C  951  1  0.74820300  0.47344800  0.57824400  1
  C  952  1  0.72228500  0.48525300  0.56830000  1
  C  953  1  0.72603600  0.50896600  0.55469000  1
  C  954  1  0.75574100  0.52134500  0.55090400  1
  C  955  1  0.78150600  0.50951700  0.56090500  1
  C  956  1  0.77784100  0.48582100  0.57445300  1
  C  957  1  0.73278200  0.31274800  0.57679000  1
  C  958  1  0.70190400  0.30305100  0.57386000  1
  C  959  1  0.69502800  0.28014700  0.56027300  1
  C  960  1  0.71874100  0.26644300  0.54930600  1
  C  961  1  0.74967900  0.27623100  0.55214900  1
  C  962  1  0.75665200  0.29916500  0.56581200  1
  C  963  1  0.74820500  0.30994700  0.67576600  1
  C  964  1  0.77785500  0.29710100  0.67886900  1
  C  965  1  0.78196200  0.27327600  0.69227300  1
  C  966  1  0.75666100  0.26191700  0.70290300  1
  C  967  1  0.72693200  0.27473900  0.69980500  1
  C  968  1  0.72272100  0.29850300  0.68627900  1
  C  969  1  0.73393300  0.47080000  0.67723800  1
  C  970  1  0.75761800  0.48376600  0.68866000  1
  C  971  1  0.70319700  0.48133600  0.67955900  1
  C  972  1  0.69627900  0.50447800  0.69295900  1
  C  973  1  0.71979900  0.51746000  0.70439400  1
  C  974  1  0.75058400  0.50686900  0.70221200  1
  C  1005  1  0.24098500  0.79310500  0.61626500  1
  C  1006  1  0.24313700  0.79255600  0.63590700  1
  C  1007  1  0.24443400  0.82312300  0.64244400  1
  C  1009  1  0.24136900  0.82400400  0.61032000  1
  C  1010  1  0.23988700  0.83395100  0.59098500  1
  C  1011  1  0.24155400  0.86527800  0.58494700  1
  C  1013  1  0.24429400  0.91704900  0.58555500  1
  C  1014  1  0.24395700  0.90768100  0.56647700  1
  C  1015  1  0.24171100  0.87578400  0.56610300  1
  C  1016  1  0.24529000  0.94802600  0.59231200  1
  C  1017  1  0.24402300  0.95696100  0.61183700  1
  C  1019  1  0.24120500  0.95608100  0.64396200  1
  C  1020  1  0.24065200  0.98697900  0.63801900  1
  C  1021  1  0.24261900  0.98752800  0.61837200  1
  C  1022  1  0.23996000  0.94613600  0.66330200  1
  C  1023  1  0.24178400  0.91481800  0.66933400  1
  C  1025  1  0.24465800  0.86305400  0.66871900  1
  C  1026  1  0.24433200  0.87242200  0.68779900  1
  C  1027  1  0.24207900  0.90431900  0.68817700  1
  C  1028  1  0.24570600  0.83207000  0.66196800  1
  C  1029  1  0.24895500  0.80818600  0.67581400  1
  C  1030  1  0.22308100  0.79651700  0.68586100  1
  C  1031  1  0.22686000  0.77287200  0.69951100  1
  C  1032  1  0.25655900  0.76043400  0.70325300  1
  C  1033  1  0.28228200  0.77213100  0.69314700  1
  C  1034  1  0.27858400  0.79575300  0.67955200  1
  C  1035  1  0.23367100  0.96891200  0.67749300  1
  C  1036  1  0.20278000  0.97858200  0.68040700  1
  C  1037  1  0.19585100  0.00147690  0.69399100  1
  C  1038  1  0.21952400  0.01522090  0.70497100  1
  C  1039  1  0.25048000  0.00547290  0.70214300  1
  C  1040  1  0.25750300  0.98254100  0.68848500  1
  C  1041  1  0.24889700  0.97191700  0.57850800  1
  C  1042  1  0.27854800  0.98473700  0.57537100  1
  C  1043  1  0.28262300  0.00858390  0.56198000  1
  C  1044  1  0.25728500  0.02000390  0.55140500  1
  C  1045  1  0.22755500  0.00720990  0.55454200  1
  C  1046  1  0.22337600  0.98341600  0.56804900  1
  C  1047  1  0.23339700  0.81119500  0.57681000  1
  C  1048  1  0.25702200  0.79780800  0.56554100  1
  C  1049  1  0.20246600  0.80151700  0.57407000  1
  C  1050  1  0.19529600  0.77885800  0.56038300  1
  C  1051  1  0.21875700  0.76538000  0.54911000  1
  C  1052  1  0.24975500  0.77511900  0.55177600  1
  C  1083  1  0.72816200  0.98853600  0.11608500  1
  C  1084  1  0.72601900  0.98904100  0.13572800  1
  C  1085  1  0.72490300  0.95845800  0.14224400  1
  C  1087  1  0.72794900  0.95764500  0.11011700  1
  C  1088  1  0.72955000  0.94773200  0.09078000  1
  C  1089  1  0.72791700  0.91643300  0.08468100  1
  C  1091  1  0.72502300  0.86466900  0.08517300  1
  C  1092  1  0.72578800  0.87411100  0.06611600  1
  C  1093  1  0.72808600  0.90600600  0.06581800  1
  C  1094  1  0.72372100  0.83366400  0.09185900  1
  C  1095  1  0.72452300  0.82468200  0.11138300  1
  C  1097  1  0.72691600  0.82547200  0.14352100  1
  C  1098  1  0.72700200  0.79457600  0.13755000  1
  C  1099  1  0.72529400  0.79408700  0.11789700  1
  C  1100  1  0.72824300  0.83535700  0.16287000  1
  C  1101  1  0.72693200  0.86666800  0.16897400  1
  C  1103  1  0.72465300  0.91846200  0.16846400  1
  C  1104  1  0.72519700  0.90901300  0.18752500  1
  C  1105  1  0.72710800  0.87709300  0.18783500  1
  C  1106  1  0.72374500  0.94947900  0.16176600  1
  C  1107  1  0.72053600  0.97332800  0.17564600  1
  C  1108  1  0.74642600  0.98502700  0.18566600  1
  C  1109  1  0.74266200  0.00865990  0.19932900  1
  C  1110  1  0.71296600  0.02107490  0.20310700  1
  C  1111  1  0.68722600  0.00933890  0.19303700  1
  C  1112  1  0.69090700  0.98572600  0.17943300  1
  C  1113  1  0.73449300  0.81245300  0.17697700  1
  C  1114  1  0.76524600  0.80198200  0.17932700  1
  C  1115  1  0.77216100  0.77876800  0.19268300  1
  C  1116  1  0.74862000  0.76564200  0.20404000  1
  C  1117  1  0.71782100  0.77618300  0.20183300  1
  C  1118  1  0.71079300  0.79936000  0.18832900  1
  C  1119  1  0.72044600  0.80983100  0.07797600  1
  C  1120  1  0.69077500  0.79753200  0.07418900  1
  C  1121  1  0.68704100  0.77379600  0.06067600  1
  C  1122  1  0.71276900  0.76184300  0.05069200  1
  C  1123  1  0.74251100  0.77414900  0.05447200  1
  C  1124  1  0.74632900  0.79790500  0.06804900  1
  C  1125  1  0.73598100  0.97055900  0.07664800  1
  C  1126  1  0.71229800  0.98394700  0.06542500  1
  C  1127  1  0.76688800  0.98030500  0.07390800  1
  C  1128  1  0.77398400  0.00303790  0.06025600  1
  C  1129  1  0.75046400  0.01652690  0.04903400  1
  C  1130  1  0.71949100  0.00671690  0.05170000  1
  C  1161  1  0.88652300  0.63389200  0.36667900  1
  C  1162  1  0.88620800  0.63217700  0.38632300  1
  C  1163  1  0.91683600  0.63035600  0.39270500  1
  C  1165  1  0.91733600  0.63286500  0.36058200  1
  C  1166  1  0.92702900  0.63385700  0.34119600  1
  C  1167  1  0.95826100  0.63225400  0.33498500  1
  C  1169  1  0.01005190  0.62988400  0.33534000  1
  C  1170  1  0.00041290  0.62974000  0.31631100  1
  C  1171  1  0.96848400  0.63170700  0.31608800  1
  C  1172  1  0.04111490  0.62908700  0.34196500  1
  C  1173  1  0.05025190  0.63074800  0.36144400  1
  C  1175  1  0.04972790  0.63452900  0.39354000  1
  C  1176  1  0.08057390  0.63427600  0.38747700  1
  C  1177  1  0.08089790  0.63177600  0.36785700  1
  C  1178  1  0.04002390  0.63647900  0.41290900  1
  C  1179  1  0.00879190  0.63439700  0.41911500  1
  C  1181  1  0.95704700  0.63063900  0.41877800  1
  C  1182  1  0.96664700  0.63147100  0.43780300  1
  C  1183  1  0.99848800  0.63448200  0.43800200  1
  C  1184  1  0.92598200  0.62921700  0.41219100  1
  C  1185  1  0.90213500  0.62650400  0.42612000  1
  C  1186  1  0.89154100  0.65262100  0.43636700  1
  C  1187  1  0.86757100  0.64960000  0.44985600  1
  C  1188  1  0.85354700  0.62046900  0.45318400  1
  C  1189  1  0.86385800  0.59457900  0.44267600  1
  C  1190  1  0.88796900  0.59747700  0.42932500  1
  C  1191  1  0.06310690  0.64277600  0.42693800  1
  C  1192  1  0.07515990  0.67309300  0.42858200  1
  C  1193  1  0.09848290  0.67978100  0.44195000  1
  C  1194  1  0.10996600  0.65652200  0.45418100  1
  C  1195  1  0.09801690  0.62611000  0.45249900  1
  C  1196  1  0.07491190  0.61926500  0.43894000  1
  C  1197  1  0.06491390  0.62601100  0.32804700  1
  C  1198  1  0.07814790  0.59665500  0.32451600  1
  C  1199  1  0.10190200  0.59334500  0.31095900  1
  C  1200  1  0.11291500  0.61917900  0.30066800  1
  C  1201  1  0.09970590  0.64860600  0.30426000  1
  C  1202  1  0.07599790  0.65201400  0.31789000  1
  C  1203  1  0.90387900  0.63909900  0.32709700  1
  C  1204  1  0.88929200  0.61427700  0.31748200  1
  C  1205  1  0.89399200  0.66972000  0.32343700  1
  C  1206  1  0.87008500  0.67544400  0.31031300  1
  C  1207  1  0.85575700  0.65070500  0.30051700  1
  C  1208  1  0.86531100  0.62006200  0.30430900  1
  C  1239  1  0.08241490  0.14714500  0.86637100  1
  C  1240  1  0.08277890  0.14959600  0.88599300  1
  C  1241  1  0.05214490  0.15068900  0.89243000  1
  C  1243  1  0.05156090  0.14702500  0.86032900  1
  C  1244  1  0.04182190  0.14500700  0.84097000  1
  C  1245  1  0.01057090  0.14696900  0.83479100  1
  C  1247  1  0.95882100  0.15057800  0.83520000  1
  C  1248  1  0.96834500  0.14960100  0.81616200  1
  C  1249  1  0.00019990  0.14673000  0.81591900  1
  C  1250  1  0.92779300  0.15216100  0.84184100  1
  C  1251  1  0.91867100  0.15095100  0.86133300  1
  C  1253  1  0.91922600  0.14731400  0.89343100  1
  C  1254  1  0.88837200  0.14770300  0.88739000  1
  C  1255  1  0.88802700  0.15015900  0.86776700  1
  C  1256  1  0.92896500  0.14531500  0.91279000  1
  C  1257  1  0.96022800  0.14714500  0.91896600  1
  C  1259  1  0.01200090  0.15056900  0.91856200  1
  C  1260  1  0.00245190  0.14972800  0.93759900  1
  C  1261  1  0.97058500  0.14697800  0.93784000  1
  C  1262  1  0.04304290  0.15201900  0.91192700  1
  C  1263  1  0.06690090  0.15480400  0.92584700  1
  C  1264  1  0.07755090  0.12869100  0.93608100  1
  C  1265  1  0.10140700  0.13176300  0.94964400  1
  C  1266  1  0.11526200  0.16094300  0.95306900  1
  C  1267  1  0.10487700  0.18684000  0.94258900  1
  C  1268  1  0.08087490  0.18388800  0.92916000  1
  C  1269  1  0.90590400  0.13900000  0.92682600  1
  C  1270  1  0.89389000  0.10867100  0.92848400  1
  C  1271  1  0.87059200  0.10197000  0.94186800  1
  C  1272  1  0.85910400  0.12522600  0.95409800  1
  C  1273  1  0.87100500  0.15565400  0.95239200  1
  C  1274  1  0.89408200  0.16251300  0.93881800  1
  C  1275  1  0.90399500  0.15525500  0.82791900  1
  C  1276  1  0.89100400  0.18468100  0.82426300  1
  C  1277  1  0.86730000  0.18804400  0.81067600  1
  C  1278  1  0.85610000  0.16219100  0.80047800  1
  C  1279  1  0.86903800  0.13269000  0.80421000  1
  C  1280  1  0.89267900  0.12923100  0.81787900  1
  C  1281  1  0.06486290  0.13866600  0.82692500  1
  C  1282  1  0.07666590  0.16216600  0.81491600  1
  C  1283  1  0.07683690  0.10832400  0.82525000  1
  C  1284  1  0.10009100  0.10160100  0.81184200  1
  C  1285  1  0.11156700  0.12484800  0.79960000  1
  C  1286  1  0.09969690  0.15528600  0.80131500  1
  C  1317  1  0.38719100  0.64711500  0.88789500  1
  C  1318  1  0.38682100  0.64890500  0.86825200  1
  C  1319  1  0.41741200  0.65114100  0.86185800  1
  C  1321  1  0.41799800  0.64851800  0.89397800  1
  C  1322  1  0.42773700  0.64774900  0.91336300  1
  C  1323  1  0.45896500  0.64954200  0.91957300  1
  C  1325  1  0.51075900  0.65202600  0.91925000  1
  C  1326  1  0.50108700  0.65232700  0.93827000  1
  C  1327  1  0.46916000  0.65033000  0.93847300  1
  C  1328  1  0.54183800  0.65266000  0.91265400  1
  C  1329  1  0.55091400  0.65115900  0.89316400  1
  C  1331  1  0.55033300  0.64875200  0.86103700  1
  C  1332  1  0.58114500  0.64739500  0.86711500  1
  C  1333  1  0.58150900  0.64904200  0.88676200  1
  C  1334  1  0.54059800  0.64809400  0.84165000  1
  C  1335  1  0.50936900  0.64987100  0.83544700  1
  C  1337  1  0.45757200  0.65223400  0.83577600  1
  C  1338  1  0.46724200  0.65269100  0.81675800  1
  C  1339  1  0.49917600  0.65079800  0.81654800  1
  C  1340  1  0.42649100  0.65276900  0.84237400  1
  C  1341  1  0.40260400  0.65544500  0.82846700  1
  C  1342  1  0.39240400  0.62940900  0.81799100  1
  C  1343  1  0.36848600  0.63241100  0.80446200  1
  C  1344  1  0.35416100  0.66144300  0.80129200  1
  C  1345  1  0.36410600  0.68724700  0.81201600  1
  C  1346  1  0.38813200  0.68436500  0.82542700  1
  C  1347  1  0.56372000  0.64298600  0.82751700  1
  C  1348  1  0.57352900  0.61239100  0.82370600  1
  C  1349  1  0.59744900  0.60678800  0.81057200  1
  C  1350  1  0.61186600  0.63161900  0.80091300  1
  C  1351  1  0.60239300  0.66223500  0.80486600  1
  C  1352  1  0.57839600  0.66790100  0.81804800  1
  C  1353  1  0.56572900  0.65545000  0.92655200  1
  C  1354  1  0.58010500  0.68443000  0.92955000  1
  C  1355  1  0.60427400  0.68740200  0.94285500  1
  C  1356  1  0.61445500  0.66163300  0.95352300  1
  C  1357  1  0.60019500  0.63254800  0.95041900  1
  C  1358  1  0.57614200  0.62945500  0.93698700  1
  C  1359  1  0.40462500  0.64246300  0.92747800  1
  C  1360  1  0.38985800  0.66727100  0.93700300  1
  C  1361  1  0.39489000  0.61181500  0.93119800  1
  C  1362  1  0.37094400  0.60605100  0.94428800  1
  C  1363  1  0.35643800  0.63077300  0.95400100  1
  C  1364  1  0.36585000  0.66144300  0.95015000  1
  C  1395  1  0.58248400  0.13368400  0.38779700  1
  C  1396  1  0.58285700  0.13116300  0.36817900  1
  C  1397  1  0.55222500  0.13022500  0.36172900  1
  C  1399  1  0.55162500  0.13395200  0.39382800  1
  C  1400  1  0.54187500  0.13610000  0.41317900  1
  C  1401  1  0.51061300  0.13428300  0.41935200  1
  C  1403  1  0.45885800  0.13079500  0.41893700  1
  C  1404  1  0.46836500  0.13192500  0.43797500  1
  C  1405  1  0.50022500  0.13470700  0.43822100  1
  C  1406  1  0.42783700  0.12917100  0.41229100  1
  C  1407  1  0.41872600  0.13023400  0.39279300  1
  C  1409  1  0.41930200  0.13374600  0.36069200  1
  C  1410  1  0.38844300  0.13322900  0.36672100  1
  C  1411  1  0.38808700  0.13080600  0.38634600  1
  C  1412  1  0.42905300  0.13581000  0.34133800  1
  C  1413  1  0.46032400  0.13400800  0.33517100  1
  C  1415  1  0.51209800  0.13054200  0.33558400  1
  C  1416  1  0.50256500  0.13151800  0.31654600  1
  C  1417  1  0.47070000  0.13427900  0.31630100  1
  C  1418  1  0.54313700  0.12902700  0.34222400  1
  C  1419  1  0.56700000  0.12623300  0.32830700  1
  C  1420  1  0.57772800  0.15235500  0.31811300  1
  C  1421  1  0.60161200  0.14928300  0.30457000  1
  C  1422  1  0.61543100  0.12009000  0.30112400  1
  C  1423  1  0.60496700  0.09418090  0.31156400  1
  C  1424  1  0.58092800  0.09713290  0.32496700  1
  C  1425  1  0.40598500  0.14209300  0.32730100  1
  C  1426  1  0.39386200  0.17238400  0.32567600  1
  C  1427  1  0.37053800  0.17904000  0.31230000  1
  C  1428  1  0.35910400  0.15577200  0.30006000  1
  C  1429  1  0.37112700  0.12538600  0.30172500  1
  C  1430  1  0.39424100  0.11857200  0.31528600  1
  C  1431  1  0.40403500  0.12621900  0.42622000  1
  C  1432  1  0.39106000  0.09683390  0.43001000  1
  C  1433  1  0.36739200  0.09361590  0.44363400  1
  C  1434  1  0.35621600  0.11957800  0.45373500  1
  C  1435  1  0.36912600  0.14904200  0.44986400  1
  C  1436  1  0.39273600  0.15235500  0.43616200  1
  C  1437  1  0.56491300  0.14246300  0.42721800  1
  C  1438  1  0.57660300  0.11901300  0.43930600  1
  C  1439  1  0.57695200  0.17278700  0.42883600  1
  C  1440  1  0.60015100  0.17954500  0.44227400  1
  C  1441  1  0.61151100  0.15635100  0.45459400  1
  C  1442  1  0.59958100  0.12593000  0.45293300  1
  C  1473  1  0.20749000  0.20086100  0.01491300  1
  C  1475  1  0.16363900  0.16722300  0.01148500  1
  C  1476  1  0.16925200  0.16478800  0.99176200  1
  C  1478  1  0.21403800  0.19759600  0.99514100  1
  C  1483  1  0.22303900  0.22075600  0.02698900  1
  C  1485  1  0.14845600  0.15048800  0.97983600  1
  C  1487  1  0.76125900  0.58034400  0.51488600  1
  C  1489  1  0.80508000  0.61403400  0.51151700  1
  C  1490  1  0.79947800  0.61653600  0.49179700  1
  C  1492  1  0.75474300  0.58364300  0.49511100  1
  C  1497  1  0.74570600  0.56042600  0.52694300  1
  C  1499  1  0.82025800  0.63092200  0.47990100  1
  C  1501  1  0.26210300  0.70161900  0.73940400  1
  C  1503  1  0.30587900  0.66787100  0.74279200  1
  C  1504  1  0.30031200  0.66543600  0.76252100  1
  C  1506  1  0.25561300  0.69838700  0.75918500  1
  C  1511  1  0.24656400  0.72152500  0.72732600  1
  C  1513  1  0.32114900  0.65111800  0.77441600  1
  C  1515  1  0.70744500  0.07995990  0.23924600  1
  C  1517  1  0.66358800  0.11359200  0.24270300  1
  C  1518  1  0.66933100  0.11617900  0.26240600  1
  C  1520  1  0.71413800  0.08339490  0.25898900  1
  C  1525  1  0.72295700  0.06001890  0.22717100  1
  C  1527  1  0.64860900  0.13054500  0.27436000  1
  C  1529  1  0.30100100  0.11572800  0.49159600  1
  C  1531  1  0.25526500  0.08532990  0.49606000  1
  C  1532  1  0.26456600  0.07802090  0.51481300  1
  C  1534  1  0.31037900  0.10924400  0.51057300  1
  C  1539  1  0.31965600  0.13076000  0.47876500  1
  C  1541  1  0.24870000  0.05712990  0.52608200  1
  C  1543  1  0.81259700  0.67868500  0.26049300  1
  C  1545  1  0.76289500  0.70362300  0.25957000  1
  C  1546  1  0.76601000  0.70868700  0.23980100  1
  C  1548  1  0.81527900  0.68232900  0.24041900  1
  C  1553  1  0.83720100  0.66993100  0.27186800  1
  C  1555  1  0.74611100  0.72742100  0.22955700  1
  C  1557  1  0.65535900  0.60370400  0.76099600  1
  C  1559  1  0.70524700  0.57915800  0.76006400  1
  C  1560  1  0.70217300  0.57410800  0.74029000  1
  C  1562  1  0.65270700  0.60010000  0.74092300  1
  C  1567  1  0.63067100  0.61213000  0.77238700  1
  C  1569  1  0.72218100  0.55549200  0.73004100  1
  C  1571  1  0.20398400  0.70677100  0.51351500  1
  C  1573  1  0.15704600  0.67694500  0.51261000  1
  C  1574  1  0.16200100  0.66998600  0.49323100  1
  C  1576  1  0.20965800  0.69909400  0.49409300  1
  C  1581  1  0.22238600  0.72621200  0.52440100  1
  C  1583  1  0.14041100  0.65394800  0.48267700  1
  C  1585  1  0.76505800  0.07526890  0.01353300  1
  C  1587  1  0.81199200  0.10508100  0.01259100  1
  C  1588  1  0.80707400  0.11189600  0.99318900  1
  C  1590  1  0.75942400  0.08279990  0.99408500  1
  C  1595  1  0.74668300  0.05584690  0.02443600  1
  C  1597  1  0.82871600  0.12781800  0.98261700  1
  C  1599  1  0.26494200  0.20576700  0.24072000  1
  C  1601  1  0.31174200  0.17574100  0.24164100  1
  C  1602  1  0.30687300  0.16903900  0.26106300  1
  C  1604  1  0.25935600  0.19835700  0.26019000  1
  C  1609  1  0.24660800  0.22521400  0.22980600  1
  C  1611  1  0.32848000  0.15305200  0.27162400  1
  C  1613  1  0.31297700  0.60252300  0.99383800  1
  C  1615  1  0.26323100  0.57767800  0.99464900  1
  C  1616  1  0.26626700  0.57253200  0.01441700  1
  C  1618  1  0.31557400  0.59882600  0.01390900  1
  C  1623  1  0.33765700  0.61116800  0.98250100  1
  C  1625  1  0.24634100  0.55372600  0.02459000  1
  C  1627  1  0.80070600  0.16633100  0.76270200  1
  C  1629  1  0.75500900  0.19684600  0.75837300  1
  C  1630  1  0.76412500  0.20404600  0.73956800  1
  C  1632  1  0.80989300  0.17269900  0.74367700  1
  C  1637  1  0.81942100  0.15124800  0.77547800  1
  C  1639  1  0.74819600  0.22493200  0.72832400  1
  C  1641  1  0.70485100  0.20705600  0.51411700  1
  C  1643  1  0.65816900  0.17686400  0.51313500  1
  C  1644  1  0.66327700  0.16996300  0.49376300  1
  C  1646  1  0.71068600  0.19944100  0.49470600  1
  C  1651  1  0.72299400  0.22670600  0.52500600  1
  C  1653  1  0.64181900  0.15384900  0.48316400  1
  C  1655  1  0.20536300  0.07455790  0.74016500  1
  C  1657  1  0.15850100  0.10448300  0.74112600  1
  C  1658  1  0.16355100  0.11143500  0.76049600  1
  C  1660  1  0.21113400  0.08223490  0.75957600  1
  C  1665  1  0.22361300  0.05497990  0.72928800  1
  C  1667  1  0.14198100  0.12743300  0.77107700  1
  C  1669  1  0.16798000  0.61490700  0.26276000  1
  C  1671  1  0.21371600  0.58446000  0.25839400  1
  C  1672  1  0.20447300  0.57708900  0.23963800  1
  C  1674  1  0.15865200  0.60834000  0.24378400  1
  C  1679  1  0.14936400  0.63011600  0.27554300  1
  C  1681  1  0.22039300  0.55618200  0.22840800  1
  C  1683  1  0.70703500  0.70248500  0.01487200  1
  C  1685  1  0.66313600  0.66882500  0.01172700  1
  C  1686  1  0.66872800  0.66594600  0.99202300  1
  C  1688  1  0.71356600  0.69877200  0.99512700  1
  C  1693  1  0.72264200  0.72258400  0.02679900  1
  C  1695  1  0.64789100  0.65142300  0.98021600  1
  N  4  1  0.04071300  0.15488200  0.12773600  1
  N  8  1  0.04118200  0.20467800  0.15832200  1
  N  14  1  0.04040500  0.25300500  0.12669200  1
  N  20  1  0.04042300  0.20324900  0.09609500  1
  N  75  1  0.07263700  0.35158400  0.03787700  1
  N  76  1  0.02017900  0.35584500  0.21553200  1
  N  77  1  0.07426400  0.05787400  0.21759900  1
  N  78  1  0.02175100  0.05262300  0.03824400  1
  N  82  1  0.55796800  0.25545100  0.62755100  1
  N  86  1  0.55747000  0.20567400  0.65815100  1
  N  92  1  0.55716700  0.15733000  0.62651100  1
  N  98  1  0.55712300  0.20711600  0.59592400  1
  N  153  1  0.52446600  0.05966900  0.53694900  1
  N  154  1  0.57773800  0.05451600  0.71539400  1
  N  155  1  0.52532800  0.35352300  0.71664100  1
  N  156  1  0.57635500  0.35789500  0.53818300  1
  N  160  1  0.05830700  0.65563700  0.62654300  1
  N  164  1  0.05770200  0.70550400  0.59603400  1
  N  170  1  0.05801000  0.75379300  0.62773500  1
  N  176  1  0.05797500  0.70394300  0.65824200  1
  N  231  1  0.02518700  0.85132500  0.71732300  1
  N  232  1  0.07833400  0.85673500  0.53889900  1
  N  233  1  0.02418800  0.55889500  0.53664100  1
  N  234  1  0.07719800  0.55329600  0.71601500  1
  N  238  1  0.54048300  0.75532000  0.12632800  1
  N  242  1  0.54080500  0.70551100  0.09571000  1
  N  248  1  0.53991000  0.65716600  0.12730200  1
  N  254  1  0.54019300  0.70695200  0.15793500  1
  N  309  1  0.57241700  0.55882300  0.21623000  1
  N  310  1  0.52143100  0.55456300  0.03803000  1
  N  311  1  0.57430700  0.85241900  0.03659100  1
  N  312  1  0.52167200  0.85753200  0.21589300  1
  N  316  1  0.74916400  0.44529000  0.37672300  1
  N  320  1  0.79864900  0.44588800  0.34594500  1
  N  326  1  0.84725100  0.44689500  0.37739900  1
  N  332  1  0.79779600  0.44686500  0.40816800  1
  N  387  1  0.94630300  0.47972300  0.46656700  1
  N  388  1  0.94912000  0.42821700  0.28763900  1
  N  389  1  0.64800400  0.47120800  0.28808100  1
  N  390  1  0.64620200  0.42991500  0.46597800  1
  N  394  1  0.84912200  0.96410100  0.87648000  1
  N  398  1  0.79961900  0.96389000  0.84576900  1
  N  404  1  0.75103400  0.96417300  0.87727900  1
  N  410  1  0.80054800  0.96390900  0.90799000  1
  N  465  1  0.65219500  0.93134200  0.96652500  1
  N  466  1  0.64935700  0.98254300  0.78738500  1
  N  467  1  0.94777400  0.93093200  0.78714600  1
  N  468  1  0.95185800  0.98087500  0.96592600  1
  N  472  1  0.24977300  0.46566400  0.87783200  1
  N  476  1  0.29937300  0.46515900  0.90862700  1
  N  482  1  0.34789900  0.46572000  0.87719000  1
  N  488  1  0.29830500  0.46536100  0.84639700  1
  N  543  1  0.44902200  0.44062200  0.78848300  1
  N  544  1  0.45126000  0.48162100  0.96623700  1
  N  545  1  0.14861600  0.43961900  0.96639400  1
  N  546  1  0.14691100  0.48137100  0.78843700  1
  N  550  1  0.34919100  0.94624900  0.37767300  1
  N  554  1  0.29966800  0.94667600  0.40837200  1
  N  560  1  0.25110100  0.94634900  0.37685300  1
  N  566  1  0.30063400  0.94648600  0.34614900  1
  N  621  1  0.15214100  0.97896600  0.28765500  1
  N  622  1  0.14949000  0.92871800  0.46685900  1
  N  623  1  0.44766700  0.97964700  0.46706900  1
  N  624  1  0.45208900  0.92952100  0.28830100  1
  N  626  1  0.99720300  0.00010500  0.02206100  1
  N  629  1  0.00884300  0.99477000  0.98455600  1
  N  632  1  0.05241200  0.02632100  0.98588100  1
  N  640  1  0.60086600  0.41045100  0.52206400  1
  N  643  1  0.58926700  0.41588800  0.48456100  1
  N  646  1  0.54573400  0.38428100  0.48582800  1
  N  654  1  0.10169200  0.50081800  0.73223600  1
  N  657  1  0.09013500  0.49550400  0.76974600  1
  N  660  1  0.04663300  0.52715300  0.76846500  1
  N  668  1  0.49707000  0.90996000  0.23213200  1
  N  671  1  0.50899800  0.91562400  0.26957800  1
  N  674  1  0.55260300  0.88413500  0.26822400  1
  N  682  1  0.08868200  0.91797100  0.48515100  1
  N  685  1  0.10636700  0.90516000  0.52106500  1
  N  688  1  0.15171500  0.93399500  0.51866500  1
  N  696  1  0.60116800  0.50437600  0.26907700  1
  N  699  1  0.60670000  0.51217900  0.23128700  1
  N  702  1  0.65431500  0.48738900  0.22975500  1
  N  710  1  0.49619200  0.40751100  0.76958700  1
  N  713  1  0.49075000  0.39979900  0.73178600  1
  N  716  1  0.44292700  0.42420900  0.73028000  1
  N  724  1  0.99251400  0.50983200  0.52174000  1
  N  727  1  0.00278100  0.49607900  0.48494900  1
  N  730  1  0.04906300  0.52346700  0.48379600  1
  N  738  1  0.60584500  0.90162800  0.02175700  1
  N  741  1  0.59566800  0.91509400  0.98491100  1
  N  744  1  0.54939000  0.88767900  0.98380000  1
  N  752  1  0.10563800  0.00859600  0.23247600  1
  N  755  1  0.09555300  0.99534700  0.26936100  1
  N  758  1  0.04939800  0.02296500  0.27049300  1
  N  766  1  0.10158800  0.40622300  0.98518900  1
  N  769  1  0.10693700  0.39833100  0.02298300  1
  N  772  1  0.15459900  0.42303000  0.02460800  1
  N  780  1  0.58850800  0.99356800  0.76924100  1
  N  783  1  0.60582200  0.00614100  0.73323000  1
  N  786  1  0.65110600  0.97716900  0.73549000  1
  N  794  1  0.49345600  0.00989800  0.52230900  1
  N  797  1  0.50399400  0.99626700  0.48552100  1
  N  800  1  0.55005700  0.02404700  0.48446400  1
  N  808  1  0.99390100  0.90090700  0.73196600  1
  N  811  1  0.00433200  0.91464400  0.76874900  1
  N  814  1  0.05057200  0.88716300  0.76982700  1
  N  822  1  0.00962000  0.41715000  0.26925400  1
  N  825  1  0.99204300  0.40421700  0.23334000  1
  N  828  1  0.94670100  0.43308200  0.23563900  1
  N  836  1  0.49670900  0.50194400  0.02214100  1
  N  839  1  0.50833800  0.49574500  0.98469300  1
  N  842  1  0.55196100  0.52724800  0.98574900  1
  N  852  1  0.22603900  0.34020800  0.12773600  1
  N  856  1  0.22650800  0.39000400  0.15832200  1
  N  862  1  0.22573100  0.43833100  0.12669200  1
  N  868  1  0.22574900  0.38857500  0.09609500  1
  N  923  1  0.25796300  0.53691000  0.03787700  1
  N  924  1  0.20550500  0.54117100  0.21553200  1
  N  925  1  0.25959000  0.24320000  0.21759900  1
  N  926  1  0.20707700  0.23794900  0.03824400  1
  N  930  1  0.74329400  0.44077700  0.62755100  1
  N  934  1  0.74279600  0.39100000  0.65815100  1
  N  940  1  0.74249300  0.34265600  0.62651100  1
  N  946  1  0.74244900  0.39244200  0.59592400  1
  N  1001  1  0.70979200  0.24499500  0.53694900  1
  N  1002  1  0.76306400  0.23984200  0.71539400  1
  N  1003  1  0.71065400  0.53884900  0.71664100  1
  N  1004  1  0.76168100  0.54322100  0.53818300  1
  N  1008  1  0.24363300  0.84096300  0.62654300  1
  N  1012  1  0.24302800  0.89083000  0.59603400  1
  N  1018  1  0.24333600  0.93911900  0.62773500  1
  N  1024  1  0.24330100  0.88926900  0.65824200  1
  N  1079  1  0.21051300  0.03665090  0.71732300  1
  N  1080  1  0.26366000  0.04206090  0.53889900  1
  N  1081  1  0.20951400  0.74422100  0.53664100  1
  N  1082  1  0.26252400  0.73862200  0.71601500  1
  N  1086  1  0.72580900  0.94064600  0.12632800  1
  N  1090  1  0.72613100  0.89083700  0.09571000  1
  N  1096  1  0.72523600  0.84249200  0.12730200  1
  N  1102  1  0.72551900  0.89227800  0.15793500  1
  N  1157  1  0.75774300  0.74414900  0.21623000  1
  N  1158  1  0.70675700  0.73988900  0.03803000  1
  N  1159  1  0.75963300  0.03774490  0.03659100  1
  N  1160  1  0.70699800  0.04285790  0.21589300  1
  N  1164  1  0.93449000  0.63061600  0.37672300  1
  N  1168  1  0.98397500  0.63121400  0.34594500  1
  N  1174  1  0.03257690  0.63222100  0.37739900  1
  N  1180  1  0.98312200  0.63219100  0.40816800  1
  N  1235  1  0.13162900  0.66504900  0.46656700  1
  N  1236  1  0.13444600  0.61354300  0.28763900  1
  N  1237  1  0.83333000  0.65653400  0.28808100  1
  N  1238  1  0.83152800  0.61524100  0.46597800  1
  N  1242  1  0.03444790  0.14942700  0.87648000  1
  N  1246  1  0.98494500  0.14921600  0.84576900  1
  N  1252  1  0.93636000  0.14949900  0.87727900  1
  N  1258  1  0.98587400  0.14923500  0.90799000  1
  N  1313  1  0.83752100  0.11666800  0.96652500  1
  N  1314  1  0.83468300  0.16786900  0.78738500  1
  N  1315  1  0.13310000  0.11625800  0.78714600  1
  N  1316  1  0.13718400  0.16620100  0.96592600  1
  N  1320  1  0.43509900  0.65099000  0.87783200  1
  N  1324  1  0.48469900  0.65048500  0.90862700  1
  N  1330  1  0.53322500  0.65104600  0.87719000  1
  N  1336  1  0.48363100  0.65068700  0.84639700  1
  N  1391  1  0.63434800  0.62594800  0.78848300  1
  N  1392  1  0.63658600  0.66694700  0.96623700  1
  N  1393  1  0.33394200  0.62494500  0.96639400  1
  N  1394  1  0.33223700  0.66666667  0.78843700  1
  N  1398  1  0.53451700  0.13157500  0.37767300  1
  N  1402  1  0.48499400  0.13200200  0.40837200  1
  N  1408  1  0.43642700  0.13167500  0.37685300  1
  N  1414  1  0.48596000  0.13181200  0.34614900  1
  N  1469  1  0.33746700  0.16429200  0.28765500  1
  N  1470  1  0.33481600  0.11404400  0.46685900  1
  N  1471  1  0.63299300  0.16497300  0.46706900  1
  N  1472  1  0.63741500  0.11484700  0.28830100  1
  N  1474  1  0.18252900  0.18543100  0.02206100  1
  N  1477  1  0.19416900  0.18009600  0.98455600  1
  N  1480  1  0.23773800  0.21164700  0.98588100  1
  N  1488  1  0.78619200  0.59577700  0.52206400  1
  N  1491  1  0.77459300  0.60121400  0.48456100  1
  N  1494  1  0.73106000  0.56960700  0.48582800  1
  N  1502  1  0.28701800  0.68614400  0.73223600  1
  N  1505  1  0.27546100  0.68083000  0.76974600  1
  N  1508  1  0.23195900  0.71247900  0.76846500  1
  N  1516  1  0.68239600  0.09528590  0.23213200  1
  N  1519  1  0.69432400  0.10095000  0.26957800  1
  N  1522  1  0.73792900  0.06946090  0.26822400  1
  N  1530  1  0.27400800  0.10329700  0.48515100  1
  N  1533  1  0.29169300  0.09048590  0.52106500  1
  N  1536  1  0.33704100  0.11932100  0.51866500  1
  N  1544  1  0.78649400  0.68970200  0.26907700  1
  N  1547  1  0.79202600  0.69750500  0.23128700  1
  N  1550  1  0.83964100  0.67271500  0.22975500  1
  N  1558  1  0.68151800  0.59283700  0.76958700  1
  N  1561  1  0.67607600  0.58512500  0.73178600  1
  N  1564  1  0.62825300  0.60953500  0.73028000  1
  N  1572  1  0.17784000  0.69515800  0.52174000  1
  N  1575  1  0.18810700  0.68140500  0.48494900  1
  N  1578  1  0.23438900  0.70879300  0.48379600  1
  N  1586  1  0.79117100  0.08695390  0.02175700  1
  N  1589  1  0.78099400  0.10042000  0.98491100  1
  N  1592  1  0.73471600  0.07300490  0.98380000  1
  N  1600  1  0.29096400  0.19392200  0.23247600  1
  N  1603  1  0.28087900  0.18067300  0.26936100  1
  N  1606  1  0.23472400  0.20829100  0.27049300  1
  N  1614  1  0.28691400  0.59154900  0.98518900  1
  N  1617  1  0.29226300  0.58365700  0.02298300  1
  N  1620  1  0.33992500  0.60835600  0.02460800  1
  N  1628  1  0.77383400  0.17889400  0.76924100  1
  N  1631  1  0.79114800  0.19146700  0.73323000  1
  N  1634  1  0.83643200  0.16249500  0.73549000  1
  N  1642  1  0.67878200  0.19522400  0.52230900  1
  N  1645  1  0.68932000  0.18159300  0.48552100  1
  N  1648  1  0.73538300  0.20937300  0.48446400  1
  N  1656  1  0.17922700  0.08623290  0.73196600  1
  N  1659  1  0.18965800  0.09996990  0.76874900  1
  N  1662  1  0.23589800  0.07248890  0.76982700  1
  N  1670  1  0.19494600  0.60247600  0.26925400  1
  N  1673  1  0.17736900  0.58954300  0.23334000  1
  N  1676  1  0.13202700  0.61840800  0.23563900  1
  N  1684  1  0.68203500  0.68727000  0.02214100  1
  N  1687  1  0.69366400  0.68107100  0.98469300  1
  N  1690  1  0.73728700  0.71257400  0.98574900  1
